
---------- Begin Simulation Statistics ----------
simSeconds                                   0.006018                       # Number of seconds simulated (Second)
simTicks                                   6018376266                       # Number of ticks simulated (Tick)
finalTick                                  6018376266                       # Number of ticks from beginning of simulation (restored from checkpoints and never reset) (Tick)
simFreq                                  1000000000000                       # The number of ticks per simulated second ((Tick/Second))
hostSeconds                                      8.50                       # Real time elapsed on the host (Second)
hostTickRate                                707989210                       # The number of ticks simulated per host second (ticks/s) ((Tick/Second))
hostMemory                                    1211796                       # Number of bytes of host memory used (Byte)
simInsts                                      4472407                       # Number of instructions simulated (Count)
simOps                                        9297074                       # Number of ops (including micro ops) simulated (Count)
hostInstRate                                   526118                       # Simulator instruction rate (inst/s) ((Count/Second))
hostOpRate                                    1093673                       # Simulator op (including micro ops) rate (op/s) ((Count/Second))
system.clk_domain.clock                           333                       # Clock period in ticks (Tick)
system.clk_domain.voltage_domain.voltage            1                       # Voltage in Volts (Volt)
system.cpu.numCycles                         18073202                       # Number of cpu cycles simulated (Cycle)
system.cpu.cpi                               4.041025                       # CPI: cycles per instruction (core level) ((Cycle/Count))
system.cpu.ipc                               0.247462                       # IPC: instructions per cycle (core level) ((Count/Cycle))
system.cpu.numWorkItemsStarted                      0                       # Number of work items this cpu started (Count)
system.cpu.numWorkItemsCompleted                    0                       # Number of work items this cpu completed (Count)
system.cpu.commitStats0.numInsts              4472430                       # Number of instructions committed (thread level) (Count)
system.cpu.commitStats0.numOps                9297129                       # Number of ops (including micro ops) committed (thread level) (Count)
system.cpu.commitStats0.numInstsNotNOP              0                       # Number of instructions committed excluding NOPs or prefetches (Count)
system.cpu.commitStats0.numOpsNotNOP                0                       # Number of Ops (including micro ops) Simulated (Count)
system.cpu.commitStats0.cpi                  4.041025                       # CPI: cycles per instruction (thread level) ((Cycle/Count))
system.cpu.commitStats0.ipc                  0.247462                       # IPC: instructions per cycle (thread level) ((Count/Cycle))
system.cpu.commitStats0.numMemRefs                  0                       # Number of memory references committed (Count)
system.cpu.commitStats0.numFpInsts            8159197                       # Number of float instructions (Count)
system.cpu.commitStats0.numIntInsts           2137501                       # Number of integer instructions (Count)
system.cpu.commitStats0.numLoadInsts           758038                       # Number of load instructions (Count)
system.cpu.commitStats0.numStoreInsts          273654                       # Number of store instructions (Count)
system.cpu.commitStats0.numVecInsts                 0                       # Number of vector instructions (Count)
system.cpu.commitStats0.committedInstType::No_OpClass          409      0.00%      0.00% # Class of committed instruction. (Count)
system.cpu.commitStats0.committedInstType::IntAlu      2899515     31.19%     31.19% # Class of committed instruction. (Count)
system.cpu.commitStats0.committedInstType::IntMult          107      0.00%     31.19% # Class of committed instruction. (Count)
system.cpu.commitStats0.committedInstType::IntDiv           35      0.00%     31.19% # Class of committed instruction. (Count)
system.cpu.commitStats0.committedInstType::FloatAdd          165      0.00%     31.19% # Class of committed instruction. (Count)
system.cpu.commitStats0.committedInstType::FloatCmp            0      0.00%     31.19% # Class of committed instruction. (Count)
system.cpu.commitStats0.committedInstType::FloatCvt            0      0.00%     31.19% # Class of committed instruction. (Count)
system.cpu.commitStats0.committedInstType::FloatMult            0      0.00%     31.19% # Class of committed instruction. (Count)
system.cpu.commitStats0.committedInstType::FloatMultAcc            0      0.00%     31.19% # Class of committed instruction. (Count)
system.cpu.commitStats0.committedInstType::FloatDiv            0      0.00%     31.19% # Class of committed instruction. (Count)
system.cpu.commitStats0.committedInstType::FloatMisc            0      0.00%     31.19% # Class of committed instruction. (Count)
system.cpu.commitStats0.committedInstType::FloatSqrt            0      0.00%     31.19% # Class of committed instruction. (Count)
system.cpu.commitStats0.committedInstType::SimdAdd      1785446     19.20%     50.40% # Class of committed instruction. (Count)
system.cpu.commitStats0.committedInstType::SimdAddAcc            0      0.00%     50.40% # Class of committed instruction. (Count)
system.cpu.commitStats0.committedInstType::SimdAlu          277      0.00%     50.40% # Class of committed instruction. (Count)
system.cpu.commitStats0.committedInstType::SimdCmp            0      0.00%     50.40% # Class of committed instruction. (Count)
system.cpu.commitStats0.committedInstType::SimdCvt       507904      5.46%     55.87% # Class of committed instruction. (Count)
system.cpu.commitStats0.committedInstType::SimdMisc       508080      5.46%     61.33% # Class of committed instruction. (Count)
system.cpu.commitStats0.committedInstType::SimdMult      1523352     16.39%     77.72% # Class of committed instruction. (Count)
system.cpu.commitStats0.committedInstType::SimdMultAcc            0      0.00%     77.72% # Class of committed instruction. (Count)
system.cpu.commitStats0.committedInstType::SimdMatMultAcc            0      0.00%     77.72% # Class of committed instruction. (Count)
system.cpu.commitStats0.committedInstType::SimdShift      1040147     11.19%     88.90% # Class of committed instruction. (Count)
system.cpu.commitStats0.committedInstType::SimdShiftAcc            0      0.00%     88.90% # Class of committed instruction. (Count)
system.cpu.commitStats0.committedInstType::SimdDiv            0      0.00%     88.90% # Class of committed instruction. (Count)
system.cpu.commitStats0.committedInstType::SimdSqrt            0      0.00%     88.90% # Class of committed instruction. (Count)
system.cpu.commitStats0.committedInstType::SimdFloatAdd            0      0.00%     88.90% # Class of committed instruction. (Count)
system.cpu.commitStats0.committedInstType::SimdFloatAlu            0      0.00%     88.90% # Class of committed instruction. (Count)
system.cpu.commitStats0.committedInstType::SimdFloatCmp            0      0.00%     88.90% # Class of committed instruction. (Count)
system.cpu.commitStats0.committedInstType::SimdFloatCvt            0      0.00%     88.90% # Class of committed instruction. (Count)
system.cpu.commitStats0.committedInstType::SimdFloatDiv            0      0.00%     88.90% # Class of committed instruction. (Count)
system.cpu.commitStats0.committedInstType::SimdFloatMisc            0      0.00%     88.90% # Class of committed instruction. (Count)
system.cpu.commitStats0.committedInstType::SimdFloatMult            0      0.00%     88.90% # Class of committed instruction. (Count)
system.cpu.commitStats0.committedInstType::SimdFloatMultAcc            0      0.00%     88.90% # Class of committed instruction. (Count)
system.cpu.commitStats0.committedInstType::SimdFloatMatMultAcc            0      0.00%     88.90% # Class of committed instruction. (Count)
system.cpu.commitStats0.committedInstType::SimdFloatSqrt            0      0.00%     88.90% # Class of committed instruction. (Count)
system.cpu.commitStats0.committedInstType::SimdReduceAdd            0      0.00%     88.90% # Class of committed instruction. (Count)
system.cpu.commitStats0.committedInstType::SimdReduceAlu            0      0.00%     88.90% # Class of committed instruction. (Count)
system.cpu.commitStats0.committedInstType::SimdReduceCmp            0      0.00%     88.90% # Class of committed instruction. (Count)
system.cpu.commitStats0.committedInstType::SimdFloatReduceAdd            0      0.00%     88.90% # Class of committed instruction. (Count)
system.cpu.commitStats0.committedInstType::SimdFloatReduceCmp            0      0.00%     88.90% # Class of committed instruction. (Count)
system.cpu.commitStats0.committedInstType::SimdAes            0      0.00%     88.90% # Class of committed instruction. (Count)
system.cpu.commitStats0.committedInstType::SimdAesMix            0      0.00%     88.90% # Class of committed instruction. (Count)
system.cpu.commitStats0.committedInstType::SimdSha1Hash            0      0.00%     88.90% # Class of committed instruction. (Count)
system.cpu.commitStats0.committedInstType::SimdSha1Hash2            0      0.00%     88.90% # Class of committed instruction. (Count)
system.cpu.commitStats0.committedInstType::SimdSha256Hash            0      0.00%     88.90% # Class of committed instruction. (Count)
system.cpu.commitStats0.committedInstType::SimdSha256Hash2            0      0.00%     88.90% # Class of committed instruction. (Count)
system.cpu.commitStats0.committedInstType::SimdShaSigma2            0      0.00%     88.90% # Class of committed instruction. (Count)
system.cpu.commitStats0.committedInstType::SimdShaSigma3            0      0.00%     88.90% # Class of committed instruction. (Count)
system.cpu.commitStats0.committedInstType::SimdPredAlu            0      0.00%     88.90% # Class of committed instruction. (Count)
system.cpu.commitStats0.committedInstType::Matrix            0      0.00%     88.90% # Class of committed instruction. (Count)
system.cpu.commitStats0.committedInstType::MatrixMov            0      0.00%     88.90% # Class of committed instruction. (Count)
system.cpu.commitStats0.committedInstType::MatrixOP            0      0.00%     88.90% # Class of committed instruction. (Count)
system.cpu.commitStats0.committedInstType::MemRead        20745      0.22%     89.13% # Class of committed instruction. (Count)
system.cpu.commitStats0.committedInstType::MemWrite        10938      0.12%     89.24% # Class of committed instruction. (Count)
system.cpu.commitStats0.committedInstType::FloatMemRead       737293      7.93%     97.17% # Class of committed instruction. (Count)
system.cpu.commitStats0.committedInstType::FloatMemWrite       262716      2.83%    100.00% # Class of committed instruction. (Count)
system.cpu.commitStats0.committedInstType::IprAccess            0      0.00%    100.00% # Class of committed instruction. (Count)
system.cpu.commitStats0.committedInstType::InstPrefetch            0      0.00%    100.00% # Class of committed instruction. (Count)
system.cpu.commitStats0.committedInstType::SimdUnitStrideLoad            0      0.00%    100.00% # Class of committed instruction. (Count)
system.cpu.commitStats0.committedInstType::SimdUnitStrideStore            0      0.00%    100.00% # Class of committed instruction. (Count)
system.cpu.commitStats0.committedInstType::SimdUnitStrideMaskLoad            0      0.00%    100.00% # Class of committed instruction. (Count)
system.cpu.commitStats0.committedInstType::SimdUnitStrideMaskStore            0      0.00%    100.00% # Class of committed instruction. (Count)
system.cpu.commitStats0.committedInstType::SimdStridedLoad            0      0.00%    100.00% # Class of committed instruction. (Count)
system.cpu.commitStats0.committedInstType::SimdStridedStore            0      0.00%    100.00% # Class of committed instruction. (Count)
system.cpu.commitStats0.committedInstType::SimdIndexedLoad            0      0.00%    100.00% # Class of committed instruction. (Count)
system.cpu.commitStats0.committedInstType::SimdIndexedStore            0      0.00%    100.00% # Class of committed instruction. (Count)
system.cpu.commitStats0.committedInstType::SimdWholeRegisterLoad            0      0.00%    100.00% # Class of committed instruction. (Count)
system.cpu.commitStats0.committedInstType::SimdWholeRegisterStore            0      0.00%    100.00% # Class of committed instruction. (Count)
system.cpu.commitStats0.committedInstType::SimdUnitStrideFaultOnlyFirstLoad            0      0.00%    100.00% # Class of committed instruction. (Count)
system.cpu.commitStats0.committedInstType::SimdUnitStrideSegmentedLoad            0      0.00%    100.00% # Class of committed instruction. (Count)
system.cpu.commitStats0.committedInstType::SimdUnitStrideSegmentedStore            0      0.00%    100.00% # Class of committed instruction. (Count)
system.cpu.commitStats0.committedInstType::SimdUnitStrideSegmentedFaultOnlyFirstLoad            0      0.00%    100.00% # Class of committed instruction. (Count)
system.cpu.commitStats0.committedInstType::SimdStrideSegmentedLoad            0      0.00%    100.00% # Class of committed instruction. (Count)
system.cpu.commitStats0.committedInstType::SimdStrideSegmentedStore            0      0.00%    100.00% # Class of committed instruction. (Count)
system.cpu.commitStats0.committedInstType::SimdExt            0      0.00%    100.00% # Class of committed instruction. (Count)
system.cpu.commitStats0.committedInstType::SimdFloatExt            0      0.00%    100.00% # Class of committed instruction. (Count)
system.cpu.commitStats0.committedInstType::SimdConfig            0      0.00%    100.00% # Class of committed instruction. (Count)
system.cpu.commitStats0.committedInstType::total      9297129                       # Class of committed instruction. (Count)
system.cpu.commitStats0.committedControl::IsControl       162464                       # Class of control type instructions committed (Count)
system.cpu.commitStats0.committedControl::IsDirectControl       157768                       # Class of control type instructions committed (Count)
system.cpu.commitStats0.committedControl::IsIndirectControl         4696                       # Class of control type instructions committed (Count)
system.cpu.commitStats0.committedControl::IsCondControl       152032                       # Class of control type instructions committed (Count)
system.cpu.commitStats0.committedControl::IsUncondControl        10432                       # Class of control type instructions committed (Count)
system.cpu.commitStats0.committedControl::IsCall         2456                       # Class of control type instructions committed (Count)
system.cpu.commitStats0.committedControl::IsReturn         2451                       # Class of control type instructions committed (Count)
system.cpu.dcache.demandHits::cpu.data        1028525                       # number of demand (read+write) hits (Count)
system.cpu.dcache.demandHits::total           1028525                       # number of demand (read+write) hits (Count)
system.cpu.dcache.overallHits::cpu.data       1028525                       # number of overall hits (Count)
system.cpu.dcache.overallHits::total          1028525                       # number of overall hits (Count)
system.cpu.dcache.demandMisses::cpu.data        64539                       # number of demand (read+write) misses (Count)
system.cpu.dcache.demandMisses::total           64539                       # number of demand (read+write) misses (Count)
system.cpu.dcache.overallMisses::cpu.data        64539                       # number of overall misses (Count)
system.cpu.dcache.overallMisses::total          64539                       # number of overall misses (Count)
system.cpu.dcache.demandMissLatency::cpu.data   3518814996                       # number of demand (read+write) miss ticks (Tick)
system.cpu.dcache.demandMissLatency::total   3518814996                       # number of demand (read+write) miss ticks (Tick)
system.cpu.dcache.overallMissLatency::cpu.data   3518814996                       # number of overall miss ticks (Tick)
system.cpu.dcache.overallMissLatency::total   3518814996                       # number of overall miss ticks (Tick)
system.cpu.dcache.demandAccesses::cpu.data      1093064                       # number of demand (read+write) accesses (Count)
system.cpu.dcache.demandAccesses::total       1093064                       # number of demand (read+write) accesses (Count)
system.cpu.dcache.overallAccesses::cpu.data      1093064                       # number of overall (read+write) accesses (Count)
system.cpu.dcache.overallAccesses::total      1093064                       # number of overall (read+write) accesses (Count)
system.cpu.dcache.demandMissRate::cpu.data     0.059044                       # miss rate for demand accesses (Ratio)
system.cpu.dcache.demandMissRate::total      0.059044                       # miss rate for demand accesses (Ratio)
system.cpu.dcache.overallMissRate::cpu.data     0.059044                       # miss rate for overall accesses (Ratio)
system.cpu.dcache.overallMissRate::total     0.059044                       # miss rate for overall accesses (Ratio)
system.cpu.dcache.demandAvgMissLatency::cpu.data 54522.304281                       # average overall miss latency in ticks ((Tick/Count))
system.cpu.dcache.demandAvgMissLatency::total 54522.304281                       # average overall miss latency in ticks ((Tick/Count))
system.cpu.dcache.overallAvgMissLatency::cpu.data 54522.304281                       # average overall miss latency ((Tick/Count))
system.cpu.dcache.overallAvgMissLatency::total 54522.304281                       # average overall miss latency ((Tick/Count))
system.cpu.dcache.blockedCycles::no_mshrs            0                       # number of cycles access was blocked (Cycle)
system.cpu.dcache.blockedCycles::no_targets            0                       # number of cycles access was blocked (Cycle)
system.cpu.dcache.blockedCauses::no_mshrs            0                       # number of times access was blocked (Count)
system.cpu.dcache.blockedCauses::no_targets            0                       # number of times access was blocked (Count)
system.cpu.dcache.avgBlocked::no_mshrs            nan                       # average number of cycles each access was blocked ((Cycle/Count))
system.cpu.dcache.avgBlocked::no_targets          nan                       # average number of cycles each access was blocked ((Cycle/Count))
system.cpu.dcache.writebacks::writebacks        32777                       # number of writebacks (Count)
system.cpu.dcache.writebacks::total             32777                       # number of writebacks (Count)
system.cpu.dcache.demandMshrMisses::cpu.data        64539                       # number of demand (read+write) MSHR misses (Count)
system.cpu.dcache.demandMshrMisses::total        64539                       # number of demand (read+write) MSHR misses (Count)
system.cpu.dcache.overallMshrMisses::cpu.data        64539                       # number of overall MSHR misses (Count)
system.cpu.dcache.overallMshrMisses::total        64539                       # number of overall MSHR misses (Count)
system.cpu.dcache.demandMshrMissLatency::cpu.data   3497323509                       # number of demand (read+write) MSHR miss ticks (Tick)
system.cpu.dcache.demandMshrMissLatency::total   3497323509                       # number of demand (read+write) MSHR miss ticks (Tick)
system.cpu.dcache.overallMshrMissLatency::cpu.data   3497323509                       # number of overall MSHR miss ticks (Tick)
system.cpu.dcache.overallMshrMissLatency::total   3497323509                       # number of overall MSHR miss ticks (Tick)
system.cpu.dcache.demandMshrMissRate::cpu.data     0.059044                       # mshr miss ratio for demand accesses (Ratio)
system.cpu.dcache.demandMshrMissRate::total     0.059044                       # mshr miss ratio for demand accesses (Ratio)
system.cpu.dcache.overallMshrMissRate::cpu.data     0.059044                       # mshr miss ratio for overall accesses (Ratio)
system.cpu.dcache.overallMshrMissRate::total     0.059044                       # mshr miss ratio for overall accesses (Ratio)
system.cpu.dcache.demandAvgMshrMissLatency::cpu.data 54189.304281                       # average overall mshr miss latency ((Tick/Count))
system.cpu.dcache.demandAvgMshrMissLatency::total 54189.304281                       # average overall mshr miss latency ((Tick/Count))
system.cpu.dcache.overallAvgMshrMissLatency::cpu.data 54189.304281                       # average overall mshr miss latency ((Tick/Count))
system.cpu.dcache.overallAvgMshrMissLatency::total 54189.304281                       # average overall mshr miss latency ((Tick/Count))
system.cpu.dcache.replacements                  64030                       # number of replacements (Count)
system.cpu.dcache.LockedRMWReadReq.hits::cpu.data           21                       # number of LockedRMWReadReq hits (Count)
system.cpu.dcache.LockedRMWReadReq.hits::total           21                       # number of LockedRMWReadReq hits (Count)
system.cpu.dcache.LockedRMWReadReq.misses::cpu.data            3                       # number of LockedRMWReadReq misses (Count)
system.cpu.dcache.LockedRMWReadReq.misses::total            3                       # number of LockedRMWReadReq misses (Count)
system.cpu.dcache.LockedRMWReadReq.missLatency::cpu.data       162837                       # number of LockedRMWReadReq miss ticks (Tick)
system.cpu.dcache.LockedRMWReadReq.missLatency::total       162837                       # number of LockedRMWReadReq miss ticks (Tick)
system.cpu.dcache.LockedRMWReadReq.accesses::cpu.data           24                       # number of LockedRMWReadReq accesses(hits+misses) (Count)
system.cpu.dcache.LockedRMWReadReq.accesses::total           24                       # number of LockedRMWReadReq accesses(hits+misses) (Count)
system.cpu.dcache.LockedRMWReadReq.missRate::cpu.data     0.125000                       # miss rate for LockedRMWReadReq accesses (Ratio)
system.cpu.dcache.LockedRMWReadReq.missRate::total     0.125000                       # miss rate for LockedRMWReadReq accesses (Ratio)
system.cpu.dcache.LockedRMWReadReq.avgMissLatency::cpu.data        54279                       # average LockedRMWReadReq miss latency ((Tick/Count))
system.cpu.dcache.LockedRMWReadReq.avgMissLatency::total        54279                       # average LockedRMWReadReq miss latency ((Tick/Count))
system.cpu.dcache.LockedRMWReadReq.mshrMisses::cpu.data            3                       # number of LockedRMWReadReq MSHR misses (Count)
system.cpu.dcache.LockedRMWReadReq.mshrMisses::total            3                       # number of LockedRMWReadReq MSHR misses (Count)
system.cpu.dcache.LockedRMWReadReq.mshrMissLatency::cpu.data       331668                       # number of LockedRMWReadReq MSHR miss ticks (Tick)
system.cpu.dcache.LockedRMWReadReq.mshrMissLatency::total       331668                       # number of LockedRMWReadReq MSHR miss ticks (Tick)
system.cpu.dcache.LockedRMWReadReq.mshrMissRate::cpu.data     0.125000                       # mshr miss rate for LockedRMWReadReq accesses (Ratio)
system.cpu.dcache.LockedRMWReadReq.mshrMissRate::total     0.125000                       # mshr miss rate for LockedRMWReadReq accesses (Ratio)
system.cpu.dcache.LockedRMWReadReq.avgMshrMissLatency::cpu.data       110556                       # average LockedRMWReadReq mshr miss latency ((Tick/Count))
system.cpu.dcache.LockedRMWReadReq.avgMshrMissLatency::total       110556                       # average LockedRMWReadReq mshr miss latency ((Tick/Count))
system.cpu.dcache.LockedRMWWriteReq.hits::cpu.data           24                       # number of LockedRMWWriteReq hits (Count)
system.cpu.dcache.LockedRMWWriteReq.hits::total           24                       # number of LockedRMWWriteReq hits (Count)
system.cpu.dcache.LockedRMWWriteReq.accesses::cpu.data           24                       # number of LockedRMWWriteReq accesses(hits+misses) (Count)
system.cpu.dcache.LockedRMWWriteReq.accesses::total           24                       # number of LockedRMWWriteReq accesses(hits+misses) (Count)
system.cpu.dcache.ReadReq.hits::cpu.data       757184                       # number of ReadReq hits (Count)
system.cpu.dcache.ReadReq.hits::total          757184                       # number of ReadReq hits (Count)
system.cpu.dcache.ReadReq.misses::cpu.data        31561                       # number of ReadReq misses (Count)
system.cpu.dcache.ReadReq.misses::total         31561                       # number of ReadReq misses (Count)
system.cpu.dcache.ReadReq.missLatency::cpu.data   1728779157                       # number of ReadReq miss ticks (Tick)
system.cpu.dcache.ReadReq.missLatency::total   1728779157                       # number of ReadReq miss ticks (Tick)
system.cpu.dcache.ReadReq.accesses::cpu.data       788745                       # number of ReadReq accesses(hits+misses) (Count)
system.cpu.dcache.ReadReq.accesses::total       788745                       # number of ReadReq accesses(hits+misses) (Count)
system.cpu.dcache.ReadReq.missRate::cpu.data     0.040014                       # miss rate for ReadReq accesses (Ratio)
system.cpu.dcache.ReadReq.missRate::total     0.040014                       # miss rate for ReadReq accesses (Ratio)
system.cpu.dcache.ReadReq.avgMissLatency::cpu.data 54775.804220                       # average ReadReq miss latency ((Tick/Count))
system.cpu.dcache.ReadReq.avgMissLatency::total 54775.804220                       # average ReadReq miss latency ((Tick/Count))
system.cpu.dcache.ReadReq.mshrMisses::cpu.data        31561                       # number of ReadReq MSHR misses (Count)
system.cpu.dcache.ReadReq.mshrMisses::total        31561                       # number of ReadReq MSHR misses (Count)
system.cpu.dcache.ReadReq.mshrMissLatency::cpu.data   1718269344                       # number of ReadReq MSHR miss ticks (Tick)
system.cpu.dcache.ReadReq.mshrMissLatency::total   1718269344                       # number of ReadReq MSHR miss ticks (Tick)
system.cpu.dcache.ReadReq.mshrMissRate::cpu.data     0.040014                       # mshr miss rate for ReadReq accesses (Ratio)
system.cpu.dcache.ReadReq.mshrMissRate::total     0.040014                       # mshr miss rate for ReadReq accesses (Ratio)
system.cpu.dcache.ReadReq.avgMshrMissLatency::cpu.data 54442.804220                       # average ReadReq mshr miss latency ((Tick/Count))
system.cpu.dcache.ReadReq.avgMshrMissLatency::total 54442.804220                       # average ReadReq mshr miss latency ((Tick/Count))
system.cpu.dcache.WriteReq.hits::cpu.data       271341                       # number of WriteReq hits (Count)
system.cpu.dcache.WriteReq.hits::total         271341                       # number of WriteReq hits (Count)
system.cpu.dcache.WriteReq.misses::cpu.data        32978                       # number of WriteReq misses (Count)
system.cpu.dcache.WriteReq.misses::total        32978                       # number of WriteReq misses (Count)
system.cpu.dcache.WriteReq.missLatency::cpu.data   1790035839                       # number of WriteReq miss ticks (Tick)
system.cpu.dcache.WriteReq.missLatency::total   1790035839                       # number of WriteReq miss ticks (Tick)
system.cpu.dcache.WriteReq.accesses::cpu.data       304319                       # number of WriteReq accesses(hits+misses) (Count)
system.cpu.dcache.WriteReq.accesses::total       304319                       # number of WriteReq accesses(hits+misses) (Count)
system.cpu.dcache.WriteReq.missRate::cpu.data     0.108367                       # miss rate for WriteReq accesses (Ratio)
system.cpu.dcache.WriteReq.missRate::total     0.108367                       # miss rate for WriteReq accesses (Ratio)
system.cpu.dcache.WriteReq.avgMissLatency::cpu.data 54279.696737                       # average WriteReq miss latency ((Tick/Count))
system.cpu.dcache.WriteReq.avgMissLatency::total 54279.696737                       # average WriteReq miss latency ((Tick/Count))
system.cpu.dcache.WriteReq.mshrMisses::cpu.data        32978                       # number of WriteReq MSHR misses (Count)
system.cpu.dcache.WriteReq.mshrMisses::total        32978                       # number of WriteReq MSHR misses (Count)
system.cpu.dcache.WriteReq.mshrMissLatency::cpu.data   1779054165                       # number of WriteReq MSHR miss ticks (Tick)
system.cpu.dcache.WriteReq.mshrMissLatency::total   1779054165                       # number of WriteReq MSHR miss ticks (Tick)
system.cpu.dcache.WriteReq.mshrMissRate::cpu.data     0.108367                       # mshr miss rate for WriteReq accesses (Ratio)
system.cpu.dcache.WriteReq.mshrMissRate::total     0.108367                       # mshr miss rate for WriteReq accesses (Ratio)
system.cpu.dcache.WriteReq.avgMshrMissLatency::cpu.data 53946.696737                       # average WriteReq mshr miss latency ((Tick/Count))
system.cpu.dcache.WriteReq.avgMshrMissLatency::total 53946.696737                       # average WriteReq mshr miss latency ((Tick/Count))
system.cpu.dcache.power_state.pwrStateResidencyTicks::UNDEFINED   6018376266                       # Cumulative time (in ticks) in various power states (Tick)
system.cpu.dcache.replacement_policy.selectedA         4730                       # Number of times A was selected to victimize (Unspecified)
system.cpu.dcache.replacement_policy.selectedB        59812                       # Number of times B was selected to victimize (Unspecified)
system.cpu.dcache.tags.tagsInUse           508.325871                       # Average ticks per tags in use ((Tick/Count))
system.cpu.dcache.tags.totalRefs              1093112                       # Total number of references to valid blocks. (Count)
system.cpu.dcache.tags.sampledRefs              64542                       # Sample count of references to valid blocks. (Count)
system.cpu.dcache.tags.avgRefs              16.936444                       # Average number of references to valid blocks. ((Count/Count))
system.cpu.dcache.tags.warmupTick              110889                       # The tick when the warmup percentage was hit. (Tick)
system.cpu.dcache.tags.occupancies::cpu.data   508.325871                       # Average occupied blocks per tick, per requestor ((Count/Tick))
system.cpu.dcache.tags.avgOccs::cpu.data     0.992824                       # Average percentage of cache occupancy ((Ratio/Tick))
system.cpu.dcache.tags.avgOccs::total        0.992824                       # Average percentage of cache occupancy ((Ratio/Tick))
system.cpu.dcache.tags.occupanciesTaskId::1024          512                       # Occupied blocks per task id (Count)
system.cpu.dcache.tags.ageTaskId_1024::0           61                       # Occupied blocks per task id, per block age (Count)
system.cpu.dcache.tags.ageTaskId_1024::1          451                       # Occupied blocks per task id, per block age (Count)
system.cpu.dcache.tags.ratioOccsTaskId::1024            1                       # Ratio of occupied blocks and all blocks, per task id (Ratio)
system.cpu.dcache.tags.tagAccesses            4436990                       # Number of tag accesses (Count)
system.cpu.dcache.tags.dataAccesses           4436990                       # Number of data accesses (Count)
system.cpu.dcache.tags.power_state.pwrStateResidencyTicks::UNDEFINED   6018376266                       # Cumulative time (in ticks) in various power states (Tick)
system.cpu.exec_context.thread_0.numMatAluAccesses            0                       # Number of matrix alu accesses (Count)
system.cpu.exec_context.thread_0.numCallsReturns         4907                       # Number of times a function call or return occured (Count)
system.cpu.exec_context.thread_0.numMatInsts            0                       # Number of matrix instructions (Count)
system.cpu.exec_context.thread_0.numIdleCycles     0.003003                       # Number of idle cycles (Cycle)
system.cpu.exec_context.thread_0.numBusyCycles 18073201.996997                       # Number of busy cycles (Cycle)
system.cpu.exec_context.thread_0.notIdleFraction     1.000000                       # Percentage of non-idle cycles (Ratio)
system.cpu.exec_context.thread_0.idleFraction     0.000000                       # Percentage of idle cycles (Ratio)
system.cpu.executeStats0.numInsts                   0                       # Number of executed instructions (Count)
system.cpu.executeStats0.numNop                     0                       # Number of nop insts executed (Count)
system.cpu.executeStats0.numBranches                0                       # Number of branches executed (Count)
system.cpu.executeStats0.numLoadInsts               0                       # Number of load instructions executed (Count)
system.cpu.executeStats0.numStoreInsts        1031692                       # Number of stores executed (Count)
system.cpu.executeStats0.instRate                   0                       # Inst execution rate ((Count/Cycle))
system.cpu.executeStats0.numFpAluAccesses      8159197                       # Number of float alu accesses (Count)
system.cpu.executeStats0.numFpRegReads       18905018                       # Number of times the floating registers were read (Count)
system.cpu.executeStats0.numFpRegWrites       7896393                       # Number of times the floating registers were written (Count)
system.cpu.executeStats0.numIntAluAccesses      2137501                       # Number of integer alu accesses (Count)
system.cpu.executeStats0.numIntRegReads       3029519                       # Number of times the integer registers were read (Count)
system.cpu.executeStats0.numIntRegWrites       811397                       # Number of times the integer registers were written (Count)
system.cpu.executeStats0.numMemRefs           1031692                       # Number of memory refs (Count)
system.cpu.executeStats0.numMiscRegReads      1354568                       # Number of times the Misc registers were read (Count)
system.cpu.executeStats0.numVecAluAccesses            0                       # Number of vector alu accesses (Count)
system.cpu.executeStats0.numDiscardedOps            0                       # Number of ops (including micro ops) which were discarded before commit (Count)
system.cpu.fetchStats0.numInsts               4472430                       # Number of instructions fetched (thread level) (Count)
system.cpu.fetchStats0.numOps                 9297129                       # Number of ops (including micro ops) fetched (thread level) (Count)
system.cpu.fetchStats0.fetchRate             0.247462                       # Number of inst fetches per cycle ((Count/Cycle))
system.cpu.fetchStats0.numBranches             162464                       # Number of branches fetched (Count)
system.cpu.fetchStats0.branchRate            0.008989                       # Number of branch fetches per cycle (Ratio)
system.cpu.fetchStats0.numFetchSuspends             0                       # Number of times Execute suspended instruction fetching (Count)
system.cpu.icache.demandHits::cpu.inst        6427725                       # number of demand (read+write) hits (Count)
system.cpu.icache.demandHits::total           6427725                       # number of demand (read+write) hits (Count)
system.cpu.icache.overallHits::cpu.inst       6427725                       # number of overall hits (Count)
system.cpu.icache.overallHits::total          6427725                       # number of overall hits (Count)
system.cpu.icache.demandMisses::cpu.inst          664                       # number of demand (read+write) misses (Count)
system.cpu.icache.demandMisses::total             664                       # number of demand (read+write) misses (Count)
system.cpu.icache.overallMisses::cpu.inst          664                       # number of overall misses (Count)
system.cpu.icache.overallMisses::total            664                       # number of overall misses (Count)
system.cpu.icache.demandMissLatency::cpu.inst     36133497                       # number of demand (read+write) miss ticks (Tick)
system.cpu.icache.demandMissLatency::total     36133497                       # number of demand (read+write) miss ticks (Tick)
system.cpu.icache.overallMissLatency::cpu.inst     36133497                       # number of overall miss ticks (Tick)
system.cpu.icache.overallMissLatency::total     36133497                       # number of overall miss ticks (Tick)
system.cpu.icache.demandAccesses::cpu.inst      6428389                       # number of demand (read+write) accesses (Count)
system.cpu.icache.demandAccesses::total       6428389                       # number of demand (read+write) accesses (Count)
system.cpu.icache.overallAccesses::cpu.inst      6428389                       # number of overall (read+write) accesses (Count)
system.cpu.icache.overallAccesses::total      6428389                       # number of overall (read+write) accesses (Count)
system.cpu.icache.demandMissRate::cpu.inst     0.000103                       # miss rate for demand accesses (Ratio)
system.cpu.icache.demandMissRate::total      0.000103                       # miss rate for demand accesses (Ratio)
system.cpu.icache.overallMissRate::cpu.inst     0.000103                       # miss rate for overall accesses (Ratio)
system.cpu.icache.overallMissRate::total     0.000103                       # miss rate for overall accesses (Ratio)
system.cpu.icache.demandAvgMissLatency::cpu.inst 54417.917169                       # average overall miss latency in ticks ((Tick/Count))
system.cpu.icache.demandAvgMissLatency::total 54417.917169                       # average overall miss latency in ticks ((Tick/Count))
system.cpu.icache.overallAvgMissLatency::cpu.inst 54417.917169                       # average overall miss latency ((Tick/Count))
system.cpu.icache.overallAvgMissLatency::total 54417.917169                       # average overall miss latency ((Tick/Count))
system.cpu.icache.blockedCycles::no_mshrs            0                       # number of cycles access was blocked (Cycle)
system.cpu.icache.blockedCycles::no_targets            0                       # number of cycles access was blocked (Cycle)
system.cpu.icache.blockedCauses::no_mshrs            0                       # number of times access was blocked (Count)
system.cpu.icache.blockedCauses::no_targets            0                       # number of times access was blocked (Count)
system.cpu.icache.avgBlocked::no_mshrs            nan                       # average number of cycles each access was blocked ((Cycle/Count))
system.cpu.icache.avgBlocked::no_targets          nan                       # average number of cycles each access was blocked ((Cycle/Count))
system.cpu.icache.demandMshrMisses::cpu.inst          664                       # number of demand (read+write) MSHR misses (Count)
system.cpu.icache.demandMshrMisses::total          664                       # number of demand (read+write) MSHR misses (Count)
system.cpu.icache.overallMshrMisses::cpu.inst          664                       # number of overall MSHR misses (Count)
system.cpu.icache.overallMshrMisses::total          664                       # number of overall MSHR misses (Count)
system.cpu.icache.demandMshrMissLatency::cpu.inst     35912385                       # number of demand (read+write) MSHR miss ticks (Tick)
system.cpu.icache.demandMshrMissLatency::total     35912385                       # number of demand (read+write) MSHR miss ticks (Tick)
system.cpu.icache.overallMshrMissLatency::cpu.inst     35912385                       # number of overall MSHR miss ticks (Tick)
system.cpu.icache.overallMshrMissLatency::total     35912385                       # number of overall MSHR miss ticks (Tick)
system.cpu.icache.demandMshrMissRate::cpu.inst     0.000103                       # mshr miss ratio for demand accesses (Ratio)
system.cpu.icache.demandMshrMissRate::total     0.000103                       # mshr miss ratio for demand accesses (Ratio)
system.cpu.icache.overallMshrMissRate::cpu.inst     0.000103                       # mshr miss ratio for overall accesses (Ratio)
system.cpu.icache.overallMshrMissRate::total     0.000103                       # mshr miss ratio for overall accesses (Ratio)
system.cpu.icache.demandAvgMshrMissLatency::cpu.inst 54084.917169                       # average overall mshr miss latency ((Tick/Count))
system.cpu.icache.demandAvgMshrMissLatency::total 54084.917169                       # average overall mshr miss latency ((Tick/Count))
system.cpu.icache.overallAvgMshrMissLatency::cpu.inst 54084.917169                       # average overall mshr miss latency ((Tick/Count))
system.cpu.icache.overallAvgMshrMissLatency::total 54084.917169                       # average overall mshr miss latency ((Tick/Count))
system.cpu.icache.replacements                    186                       # number of replacements (Count)
system.cpu.icache.ReadReq.hits::cpu.inst      6427725                       # number of ReadReq hits (Count)
system.cpu.icache.ReadReq.hits::total         6427725                       # number of ReadReq hits (Count)
system.cpu.icache.ReadReq.misses::cpu.inst          664                       # number of ReadReq misses (Count)
system.cpu.icache.ReadReq.misses::total           664                       # number of ReadReq misses (Count)
system.cpu.icache.ReadReq.missLatency::cpu.inst     36133497                       # number of ReadReq miss ticks (Tick)
system.cpu.icache.ReadReq.missLatency::total     36133497                       # number of ReadReq miss ticks (Tick)
system.cpu.icache.ReadReq.accesses::cpu.inst      6428389                       # number of ReadReq accesses(hits+misses) (Count)
system.cpu.icache.ReadReq.accesses::total      6428389                       # number of ReadReq accesses(hits+misses) (Count)
system.cpu.icache.ReadReq.missRate::cpu.inst     0.000103                       # miss rate for ReadReq accesses (Ratio)
system.cpu.icache.ReadReq.missRate::total     0.000103                       # miss rate for ReadReq accesses (Ratio)
system.cpu.icache.ReadReq.avgMissLatency::cpu.inst 54417.917169                       # average ReadReq miss latency ((Tick/Count))
system.cpu.icache.ReadReq.avgMissLatency::total 54417.917169                       # average ReadReq miss latency ((Tick/Count))
system.cpu.icache.ReadReq.mshrMisses::cpu.inst          664                       # number of ReadReq MSHR misses (Count)
system.cpu.icache.ReadReq.mshrMisses::total          664                       # number of ReadReq MSHR misses (Count)
system.cpu.icache.ReadReq.mshrMissLatency::cpu.inst     35912385                       # number of ReadReq MSHR miss ticks (Tick)
system.cpu.icache.ReadReq.mshrMissLatency::total     35912385                       # number of ReadReq MSHR miss ticks (Tick)
system.cpu.icache.ReadReq.mshrMissRate::cpu.inst     0.000103                       # mshr miss rate for ReadReq accesses (Ratio)
system.cpu.icache.ReadReq.mshrMissRate::total     0.000103                       # mshr miss rate for ReadReq accesses (Ratio)
system.cpu.icache.ReadReq.avgMshrMissLatency::cpu.inst 54084.917169                       # average ReadReq mshr miss latency ((Tick/Count))
system.cpu.icache.ReadReq.avgMshrMissLatency::total 54084.917169                       # average ReadReq mshr miss latency ((Tick/Count))
system.cpu.icache.power_state.pwrStateResidencyTicks::UNDEFINED   6018376266                       # Cumulative time (in ticks) in various power states (Tick)
system.cpu.icache.replacement_policy.selectedA          568                       # Number of times A was selected to victimize (Unspecified)
system.cpu.icache.replacement_policy.selectedB           96                       # Number of times B was selected to victimize (Unspecified)
system.cpu.icache.tags.tagsInUse           450.507102                       # Average ticks per tags in use ((Tick/Count))
system.cpu.icache.tags.totalRefs              6428389                       # Total number of references to valid blocks. (Count)
system.cpu.icache.tags.sampledRefs                664                       # Sample count of references to valid blocks. (Count)
system.cpu.icache.tags.avgRefs            9681.308735                       # Average number of references to valid blocks. ((Count/Count))
system.cpu.icache.tags.warmupTick               53946                       # The tick when the warmup percentage was hit. (Tick)
system.cpu.icache.tags.occupancies::cpu.inst   450.507102                       # Average occupied blocks per tick, per requestor ((Count/Tick))
system.cpu.icache.tags.avgOccs::cpu.inst     0.879897                       # Average percentage of cache occupancy ((Ratio/Tick))
system.cpu.icache.tags.avgOccs::total        0.879897                       # Average percentage of cache occupancy ((Ratio/Tick))
system.cpu.icache.tags.occupanciesTaskId::1024          478                       # Occupied blocks per task id (Count)
system.cpu.icache.tags.ageTaskId_1024::0           92                       # Occupied blocks per task id, per block age (Count)
system.cpu.icache.tags.ageTaskId_1024::1           10                       # Occupied blocks per task id, per block age (Count)
system.cpu.icache.tags.ageTaskId_1024::3          376                       # Occupied blocks per task id, per block age (Count)
system.cpu.icache.tags.ratioOccsTaskId::1024     0.933594                       # Ratio of occupied blocks and all blocks, per task id (Ratio)
system.cpu.icache.tags.tagAccesses           25714220                       # Number of tag accesses (Count)
system.cpu.icache.tags.dataAccesses          25714220                       # Number of data accesses (Count)
system.cpu.icache.tags.power_state.pwrStateResidencyTicks::UNDEFINED   6018376266                       # Cumulative time (in ticks) in various power states (Tick)
system.cpu.interrupts.clk_domain.clock           5328                       # Clock period in ticks (Tick)
system.cpu.mmu.dtb.rdAccesses                  788770                       # TLB accesses on read requests (Count)
system.cpu.mmu.dtb.wrAccesses                  304378                       # TLB accesses on write requests (Count)
system.cpu.mmu.dtb.rdMisses                        27                       # TLB misses on read requests (Count)
system.cpu.mmu.dtb.wrMisses                        74                       # TLB misses on write requests (Count)
system.cpu.mmu.dtb.walker.power_state.pwrStateResidencyTicks::UNDEFINED   6018376266                       # Cumulative time (in ticks) in various power states (Tick)
system.cpu.mmu.itb.rdAccesses                       0                       # TLB accesses on read requests (Count)
system.cpu.mmu.itb.wrAccesses                 6428389                       # TLB accesses on write requests (Count)
system.cpu.mmu.itb.rdMisses                         0                       # TLB misses on read requests (Count)
system.cpu.mmu.itb.wrMisses                        54                       # TLB misses on write requests (Count)
system.cpu.mmu.itb.walker.power_state.pwrStateResidencyTicks::UNDEFINED   6018376266                       # Cumulative time (in ticks) in various power states (Tick)
system.cpu.power_state.pwrStateResidencyTicks::ON   6018376266                       # Cumulative time (in ticks) in various power states (Tick)
system.cpu.thread_0.numInsts                        0                       # Number of Instructions committed (Count)
system.cpu.thread_0.numOps                          0                       # Number of Ops committed (Count)
system.cpu.thread_0.numMemRefs                      0                       # Number of Memory References (Count)
system.cpu.workload.numSyscalls                    19                       # Number of system calls (Count)
system.mem.bytesRead::cpu.inst                  42496                       # Number of bytes read from this memory (Byte)
system.mem.bytesRead::cpu.data                4130688                       # Number of bytes read from this memory (Byte)
system.mem.bytesRead::total                   4173184                       # Number of bytes read from this memory (Byte)
system.mem.bytesInstRead::cpu.inst              42496                       # Number of instructions bytes read from this memory (Byte)
system.mem.bytesInstRead::total                 42496                       # Number of instructions bytes read from this memory (Byte)
system.mem.bytesWritten::writebacks           2097728                       # Number of bytes written to this memory (Byte)
system.mem.bytesWritten::total                2097728                       # Number of bytes written to this memory (Byte)
system.mem.numReads::cpu.inst                     664                       # Number of read requests responded to by this memory (Count)
system.mem.numReads::cpu.data                   64542                       # Number of read requests responded to by this memory (Count)
system.mem.numReads::total                      65206                       # Number of read requests responded to by this memory (Count)
system.mem.numWrites::writebacks                32777                       # Number of write requests responded to by this memory (Count)
system.mem.numWrites::total                     32777                       # Number of write requests responded to by this memory (Count)
system.mem.bwRead::cpu.inst                   7061041                       # Total read bandwidth from this memory ((Byte/Second))
system.mem.bwRead::cpu.data                 686345921                       # Total read bandwidth from this memory ((Byte/Second))
system.mem.bwRead::total                    693406962                       # Total read bandwidth from this memory ((Byte/Second))
system.mem.bwInstRead::cpu.inst               7061041                       # Instruction read bandwidth from this memory ((Byte/Second))
system.mem.bwInstRead::total                  7061041                       # Instruction read bandwidth from this memory ((Byte/Second))
system.mem.bwWrite::writebacks              348553814                       # Write bandwidth from this memory ((Byte/Second))
system.mem.bwWrite::total                   348553814                       # Write bandwidth from this memory ((Byte/Second))
system.mem.bwTotal::writebacks              348553814                       # Total bandwidth to/from this memory ((Byte/Second))
system.mem.bwTotal::cpu.inst                  7061041                       # Total bandwidth to/from this memory ((Byte/Second))
system.mem.bwTotal::cpu.data                686345921                       # Total bandwidth to/from this memory ((Byte/Second))
system.mem.bwTotal::total                  1041960775                       # Total bandwidth to/from this memory ((Byte/Second))
system.mem.power_state.pwrStateResidencyTicks::UNDEFINED   6018376266                       # Cumulative time (in ticks) in various power states (Tick)
system.membus.transDist::ReadResp               32225                       # Transaction distribution (Count)
system.membus.transDist::WritebackDirty         32777                       # Transaction distribution (Count)
system.membus.transDist::CleanEvict             31439                       # Transaction distribution (Count)
system.membus.transDist::ReadExReq              32981                       # Transaction distribution (Count)
system.membus.transDist::ReadExResp             32981                       # Transaction distribution (Count)
system.membus.transDist::ReadSharedReq          32225                       # Transaction distribution (Count)
system.membus.pktCount_system.cpu.icache.mem_side_port::system.mem.port         1514                       # Packet count per connected requestor and responder (Count)
system.membus.pktCount_system.cpu.icache.mem_side_port::total         1514                       # Packet count per connected requestor and responder (Count)
system.membus.pktCount_system.cpu.dcache.mem_side_port::system.mem.port       193114                       # Packet count per connected requestor and responder (Count)
system.membus.pktCount_system.cpu.dcache.mem_side_port::total       193114                       # Packet count per connected requestor and responder (Count)
system.membus.pktCount::total                  194628                       # Packet count per connected requestor and responder (Count)
system.membus.pktSize_system.cpu.icache.mem_side_port::system.mem.port        42496                       # Cumulative packet size per connected requestor and responder (Byte)
system.membus.pktSize_system.cpu.icache.mem_side_port::total        42496                       # Cumulative packet size per connected requestor and responder (Byte)
system.membus.pktSize_system.cpu.dcache.mem_side_port::system.mem.port      6228416                       # Cumulative packet size per connected requestor and responder (Byte)
system.membus.pktSize_system.cpu.dcache.mem_side_port::total      6228416                       # Cumulative packet size per connected requestor and responder (Byte)
system.membus.pktSize::total                  6270912                       # Cumulative packet size per connected requestor and responder (Byte)
system.membus.snoops                                0                       # Total snoops (Count)
system.membus.snoopTraffic                          0                       # Total snoop traffic (Byte)
system.membus.snoopFanout::samples              77018                       # Request fanout histogram (Count)
system.membus.snoopFanout::mean                     0                       # Request fanout histogram (Count)
system.membus.snoopFanout::stdev                    0                       # Request fanout histogram (Count)
system.membus.snoopFanout::underflows               0      0.00%      0.00% # Request fanout histogram (Count)
system.membus.snoopFanout::0                    77018    100.00%    100.00% # Request fanout histogram (Count)
system.membus.snoopFanout::1                        0      0.00%    100.00% # Request fanout histogram (Count)
system.membus.snoopFanout::2                        0      0.00%    100.00% # Request fanout histogram (Count)
system.membus.snoopFanout::overflows                0      0.00%    100.00% # Request fanout histogram (Count)
system.membus.snoopFanout::min_value                0                       # Request fanout histogram (Count)
system.membus.snoopFanout::max_value                0                       # Request fanout histogram (Count)
system.membus.snoopFanout::total                77018                       # Request fanout histogram (Count)
system.membus.power_state.pwrStateResidencyTicks::UNDEFINED   6018376266                       # Cumulative time (in ticks) in various power states (Tick)
system.membus.reqLayer0.occupancy            94042790                       # Layer occupancy (ticks) (Tick)
system.membus.reqLayer0.utilization               0.0                       # Layer utilization (Ratio)
system.membus.respLayer0.occupancy            1293472                       # Layer occupancy (ticks) (Tick)
system.membus.respLayer0.utilization              0.0                       # Layer utilization (Ratio)
system.membus.respLayer1.occupancy          125727816                       # Layer occupancy (ticks) (Tick)
system.membus.respLayer1.utilization              0.0                       # Layer utilization (Ratio)
system.membus.snoop_filter.totRequests         141234                       # Total number of requests made to the snoop filter. (Count)
system.membus.snoop_filter.hitSingleRequests        64216                       # Number of requests hitting in the snoop filter with a single holder of the requested data. (Count)
system.membus.snoop_filter.hitMultiRequests            0                       # Number of requests hitting in the snoop filter with multiple (>1) holders of the requested data. (Count)
system.membus.snoop_filter.totSnoops                0                       # Total number of snoops made to the snoop filter. (Count)
system.membus.snoop_filter.hitSingleSnoops            0                       # Number of snoops hitting in the snoop filter with a single holder of the requested data. (Count)
system.membus.snoop_filter.hitMultiSnoops            0                       # Number of snoops hitting in the snoop filter with multiple (>1) holders of the requested data. (Count)
system.workload.inst.arm                            0                       # number of arm instructions executed (Count)
system.workload.inst.quiesce                        0                       # number of quiesce instructions executed (Count)

---------- End Simulation Statistics   ----------
