
---------- Begin Simulation Statistics ----------
simSeconds                                   0.005512                       # Number of seconds simulated (Second)
simTicks                                   5511527955                       # Number of ticks simulated (Tick)
finalTick                                  5511527955                       # Number of ticks from beginning of simulation (restored from checkpoints and never reset) (Tick)
simFreq                                  1000000000000                       # The number of ticks per simulated second ((Tick/Second))
hostSeconds                                      7.91                       # Real time elapsed on the host (Second)
hostTickRate                                696405944                       # The number of ticks simulated per host second (ticks/s) ((Tick/Second))
hostMemory                                    1225748                       # Number of bytes of host memory used (Byte)
simInsts                                     10092924                       # Number of instructions simulated (Count)
simOps                                       15178747                       # Number of ops (including micro ops) simulated (Count)
hostInstRate                                  1275271                       # Simulator instruction rate (inst/s) ((Count/Second))
hostOpRate                                    1917878                       # Simulator op (including micro ops) rate (op/s) ((Count/Second))
system.clk_domain.clock                           333                       # Clock period in ticks (Tick)
system.clk_domain.voltage_domain.voltage            1                       # Voltage in Volts (Volt)
system.cpu.numCycles                         16551135                       # Number of cpu cycles simulated (Cycle)
system.cpu.cpi                               1.639867                       # CPI: cycles per instruction (core level) ((Cycle/Count))
system.cpu.ipc                               0.609805                       # IPC: instructions per cycle (core level) ((Count/Cycle))
system.cpu.numWorkItemsStarted                      0                       # Number of work items this cpu started (Count)
system.cpu.numWorkItemsCompleted                    0                       # Number of work items this cpu completed (Count)
system.cpu.commitStats0.numInsts             10092973                       # Number of instructions committed (thread level) (Count)
system.cpu.commitStats0.numOps               15178836                       # Number of ops (including micro ops) committed (thread level) (Count)
system.cpu.commitStats0.numInstsNotNOP              0                       # Number of instructions committed excluding NOPs or prefetches (Count)
system.cpu.commitStats0.numOpsNotNOP                0                       # Number of Ops (including micro ops) Simulated (Count)
system.cpu.commitStats0.cpi                  1.639867                       # CPI: cycles per instruction (thread level) ((Cycle/Count))
system.cpu.commitStats0.ipc                  0.609805                       # IPC: instructions per cycle (thread level) ((Count/Cycle))
system.cpu.commitStats0.numMemRefs                  0                       # Number of memory references committed (Count)
system.cpu.commitStats0.numFpInsts               5297                       # Number of float instructions (Count)
system.cpu.commitStats0.numIntInsts          15173779                       # Number of integer instructions (Count)
system.cpu.commitStats0.numLoadInsts          2023832                       # Number of load instructions (Count)
system.cpu.commitStats0.numStoreInsts         1011939                       # Number of store instructions (Count)
system.cpu.commitStats0.numVecInsts                 0                       # Number of vector instructions (Count)
system.cpu.commitStats0.committedInstType::No_OpClass         1188      0.01%      0.01% # Class of committed instruction. (Count)
system.cpu.commitStats0.committedInstType::IntAlu     12136500     79.96%     79.96% # Class of committed instruction. (Count)
system.cpu.commitStats0.committedInstType::IntMult          683      0.00%     79.97% # Class of committed instruction. (Count)
system.cpu.commitStats0.committedInstType::IntDiv         1385      0.01%     79.98% # Class of committed instruction. (Count)
system.cpu.commitStats0.committedInstType::FloatAdd          252      0.00%     79.98% # Class of committed instruction. (Count)
system.cpu.commitStats0.committedInstType::FloatCmp            0      0.00%     79.98% # Class of committed instruction. (Count)
system.cpu.commitStats0.committedInstType::FloatCvt            0      0.00%     79.98% # Class of committed instruction. (Count)
system.cpu.commitStats0.committedInstType::FloatMult            0      0.00%     79.98% # Class of committed instruction. (Count)
system.cpu.commitStats0.committedInstType::FloatMultAcc            0      0.00%     79.98% # Class of committed instruction. (Count)
system.cpu.commitStats0.committedInstType::FloatDiv            0      0.00%     79.98% # Class of committed instruction. (Count)
system.cpu.commitStats0.committedInstType::FloatMisc            0      0.00%     79.98% # Class of committed instruction. (Count)
system.cpu.commitStats0.committedInstType::FloatSqrt            0      0.00%     79.98% # Class of committed instruction. (Count)
system.cpu.commitStats0.committedInstType::SimdAdd          384      0.00%     79.98% # Class of committed instruction. (Count)
system.cpu.commitStats0.committedInstType::SimdAddAcc            0      0.00%     79.98% # Class of committed instruction. (Count)
system.cpu.commitStats0.committedInstType::SimdAlu          828      0.01%     79.99% # Class of committed instruction. (Count)
system.cpu.commitStats0.committedInstType::SimdCmp            0      0.00%     79.99% # Class of committed instruction. (Count)
system.cpu.commitStats0.committedInstType::SimdCvt          870      0.01%     79.99% # Class of committed instruction. (Count)
system.cpu.commitStats0.committedInstType::SimdMisc          789      0.01%     80.00% # Class of committed instruction. (Count)
system.cpu.commitStats0.committedInstType::SimdMult            0      0.00%     80.00% # Class of committed instruction. (Count)
system.cpu.commitStats0.committedInstType::SimdMultAcc            0      0.00%     80.00% # Class of committed instruction. (Count)
system.cpu.commitStats0.committedInstType::SimdMatMultAcc            0      0.00%     80.00% # Class of committed instruction. (Count)
system.cpu.commitStats0.committedInstType::SimdShift          186      0.00%     80.00% # Class of committed instruction. (Count)
system.cpu.commitStats0.committedInstType::SimdShiftAcc            0      0.00%     80.00% # Class of committed instruction. (Count)
system.cpu.commitStats0.committedInstType::SimdDiv            0      0.00%     80.00% # Class of committed instruction. (Count)
system.cpu.commitStats0.committedInstType::SimdSqrt            0      0.00%     80.00% # Class of committed instruction. (Count)
system.cpu.commitStats0.committedInstType::SimdFloatAdd            0      0.00%     80.00% # Class of committed instruction. (Count)
system.cpu.commitStats0.committedInstType::SimdFloatAlu            0      0.00%     80.00% # Class of committed instruction. (Count)
system.cpu.commitStats0.committedInstType::SimdFloatCmp            0      0.00%     80.00% # Class of committed instruction. (Count)
system.cpu.commitStats0.committedInstType::SimdFloatCvt            0      0.00%     80.00% # Class of committed instruction. (Count)
system.cpu.commitStats0.committedInstType::SimdFloatDiv            0      0.00%     80.00% # Class of committed instruction. (Count)
system.cpu.commitStats0.committedInstType::SimdFloatMisc            0      0.00%     80.00% # Class of committed instruction. (Count)
system.cpu.commitStats0.committedInstType::SimdFloatMult            0      0.00%     80.00% # Class of committed instruction. (Count)
system.cpu.commitStats0.committedInstType::SimdFloatMultAcc            0      0.00%     80.00% # Class of committed instruction. (Count)
system.cpu.commitStats0.committedInstType::SimdFloatMatMultAcc            0      0.00%     80.00% # Class of committed instruction. (Count)
system.cpu.commitStats0.committedInstType::SimdFloatSqrt            0      0.00%     80.00% # Class of committed instruction. (Count)
system.cpu.commitStats0.committedInstType::SimdReduceAdd            0      0.00%     80.00% # Class of committed instruction. (Count)
system.cpu.commitStats0.committedInstType::SimdReduceAlu            0      0.00%     80.00% # Class of committed instruction. (Count)
system.cpu.commitStats0.committedInstType::SimdReduceCmp            0      0.00%     80.00% # Class of committed instruction. (Count)
system.cpu.commitStats0.committedInstType::SimdFloatReduceAdd            0      0.00%     80.00% # Class of committed instruction. (Count)
system.cpu.commitStats0.committedInstType::SimdFloatReduceCmp            0      0.00%     80.00% # Class of committed instruction. (Count)
system.cpu.commitStats0.committedInstType::SimdAes            0      0.00%     80.00% # Class of committed instruction. (Count)
system.cpu.commitStats0.committedInstType::SimdAesMix            0      0.00%     80.00% # Class of committed instruction. (Count)
system.cpu.commitStats0.committedInstType::SimdSha1Hash            0      0.00%     80.00% # Class of committed instruction. (Count)
system.cpu.commitStats0.committedInstType::SimdSha1Hash2            0      0.00%     80.00% # Class of committed instruction. (Count)
system.cpu.commitStats0.committedInstType::SimdSha256Hash            0      0.00%     80.00% # Class of committed instruction. (Count)
system.cpu.commitStats0.committedInstType::SimdSha256Hash2            0      0.00%     80.00% # Class of committed instruction. (Count)
system.cpu.commitStats0.committedInstType::SimdShaSigma2            0      0.00%     80.00% # Class of committed instruction. (Count)
system.cpu.commitStats0.committedInstType::SimdShaSigma3            0      0.00%     80.00% # Class of committed instruction. (Count)
system.cpu.commitStats0.committedInstType::SimdPredAlu            0      0.00%     80.00% # Class of committed instruction. (Count)
system.cpu.commitStats0.committedInstType::Matrix            0      0.00%     80.00% # Class of committed instruction. (Count)
system.cpu.commitStats0.committedInstType::MatrixMov            0      0.00%     80.00% # Class of committed instruction. (Count)
system.cpu.commitStats0.committedInstType::MatrixOP            0      0.00%     80.00% # Class of committed instruction. (Count)
system.cpu.commitStats0.committedInstType::MemRead      2022872     13.33%     93.33% # Class of committed instruction. (Count)
system.cpu.commitStats0.committedInstType::MemWrite      1011111      6.66%     99.99% # Class of committed instruction. (Count)
system.cpu.commitStats0.committedInstType::FloatMemRead          960      0.01%     99.99% # Class of committed instruction. (Count)
system.cpu.commitStats0.committedInstType::FloatMemWrite          828      0.01%    100.00% # Class of committed instruction. (Count)
system.cpu.commitStats0.committedInstType::IprAccess            0      0.00%    100.00% # Class of committed instruction. (Count)
system.cpu.commitStats0.committedInstType::InstPrefetch            0      0.00%    100.00% # Class of committed instruction. (Count)
system.cpu.commitStats0.committedInstType::SimdUnitStrideLoad            0      0.00%    100.00% # Class of committed instruction. (Count)
system.cpu.commitStats0.committedInstType::SimdUnitStrideStore            0      0.00%    100.00% # Class of committed instruction. (Count)
system.cpu.commitStats0.committedInstType::SimdUnitStrideMaskLoad            0      0.00%    100.00% # Class of committed instruction. (Count)
system.cpu.commitStats0.committedInstType::SimdUnitStrideMaskStore            0      0.00%    100.00% # Class of committed instruction. (Count)
system.cpu.commitStats0.committedInstType::SimdStridedLoad            0      0.00%    100.00% # Class of committed instruction. (Count)
system.cpu.commitStats0.committedInstType::SimdStridedStore            0      0.00%    100.00% # Class of committed instruction. (Count)
system.cpu.commitStats0.committedInstType::SimdIndexedLoad            0      0.00%    100.00% # Class of committed instruction. (Count)
system.cpu.commitStats0.committedInstType::SimdIndexedStore            0      0.00%    100.00% # Class of committed instruction. (Count)
system.cpu.commitStats0.committedInstType::SimdWholeRegisterLoad            0      0.00%    100.00% # Class of committed instruction. (Count)
system.cpu.commitStats0.committedInstType::SimdWholeRegisterStore            0      0.00%    100.00% # Class of committed instruction. (Count)
system.cpu.commitStats0.committedInstType::SimdUnitStrideFaultOnlyFirstLoad            0      0.00%    100.00% # Class of committed instruction. (Count)
system.cpu.commitStats0.committedInstType::SimdUnitStrideSegmentedLoad            0      0.00%    100.00% # Class of committed instruction. (Count)
system.cpu.commitStats0.committedInstType::SimdUnitStrideSegmentedStore            0      0.00%    100.00% # Class of committed instruction. (Count)
system.cpu.commitStats0.committedInstType::SimdUnitStrideSegmentedFaultOnlyFirstLoad            0      0.00%    100.00% # Class of committed instruction. (Count)
system.cpu.commitStats0.committedInstType::SimdStrideSegmentedLoad            0      0.00%    100.00% # Class of committed instruction. (Count)
system.cpu.commitStats0.committedInstType::SimdStrideSegmentedStore            0      0.00%    100.00% # Class of committed instruction. (Count)
system.cpu.commitStats0.committedInstType::SimdExt            0      0.00%    100.00% # Class of committed instruction. (Count)
system.cpu.commitStats0.committedInstType::SimdFloatExt            0      0.00%    100.00% # Class of committed instruction. (Count)
system.cpu.commitStats0.committedInstType::SimdConfig            0      0.00%    100.00% # Class of committed instruction. (Count)
system.cpu.commitStats0.committedInstType::total     15178836                       # Class of committed instruction. (Count)
system.cpu.commitStats0.committedControl::IsControl       518993                       # Class of control type instructions committed (Count)
system.cpu.commitStats0.committedControl::IsDirectControl       517895                       # Class of control type instructions committed (Count)
system.cpu.commitStats0.committedControl::IsIndirectControl         1062                       # Class of control type instructions committed (Count)
system.cpu.commitStats0.committedControl::IsCondControl       516533                       # Class of control type instructions committed (Count)
system.cpu.commitStats0.committedControl::IsUncondControl         2424                       # Class of control type instructions committed (Count)
system.cpu.commitStats0.committedControl::IsCall          787                       # Class of control type instructions committed (Count)
system.cpu.commitStats0.committedControl::IsReturn          782                       # Class of control type instructions committed (Count)
system.cpu.dcache.demandHits::cpu.data        3034321                       # number of demand (read+write) hits (Count)
system.cpu.dcache.demandHits::total           3034321                       # number of demand (read+write) hits (Count)
system.cpu.dcache.overallHits::cpu.data       3034321                       # number of overall hits (Count)
system.cpu.dcache.overallHits::total          3034321                       # number of overall hits (Count)
system.cpu.dcache.demandMisses::cpu.data         1375                       # number of demand (read+write) misses (Count)
system.cpu.dcache.demandMisses::total            1375                       # number of demand (read+write) misses (Count)
system.cpu.dcache.overallMisses::cpu.data         1375                       # number of overall misses (Count)
system.cpu.dcache.overallMisses::total           1375                       # number of overall misses (Count)
system.cpu.dcache.demandMissLatency::cpu.data     74676249                       # number of demand (read+write) miss ticks (Tick)
system.cpu.dcache.demandMissLatency::total     74676249                       # number of demand (read+write) miss ticks (Tick)
system.cpu.dcache.overallMissLatency::cpu.data     74676249                       # number of overall miss ticks (Tick)
system.cpu.dcache.overallMissLatency::total     74676249                       # number of overall miss ticks (Tick)
system.cpu.dcache.demandAccesses::cpu.data      3035696                       # number of demand (read+write) accesses (Count)
system.cpu.dcache.demandAccesses::total       3035696                       # number of demand (read+write) accesses (Count)
system.cpu.dcache.overallAccesses::cpu.data      3035696                       # number of overall (read+write) accesses (Count)
system.cpu.dcache.overallAccesses::total      3035696                       # number of overall (read+write) accesses (Count)
system.cpu.dcache.demandMissRate::cpu.data     0.000453                       # miss rate for demand accesses (Ratio)
system.cpu.dcache.demandMissRate::total      0.000453                       # miss rate for demand accesses (Ratio)
system.cpu.dcache.overallMissRate::cpu.data     0.000453                       # miss rate for overall accesses (Ratio)
system.cpu.dcache.overallMissRate::total     0.000453                       # miss rate for overall accesses (Ratio)
system.cpu.dcache.demandAvgMissLatency::cpu.data 54309.999273                       # average overall miss latency in ticks ((Tick/Count))
system.cpu.dcache.demandAvgMissLatency::total 54309.999273                       # average overall miss latency in ticks ((Tick/Count))
system.cpu.dcache.overallAvgMissLatency::cpu.data 54309.999273                       # average overall miss latency ((Tick/Count))
system.cpu.dcache.overallAvgMissLatency::total 54309.999273                       # average overall miss latency ((Tick/Count))
system.cpu.dcache.blockedCycles::no_mshrs            0                       # number of cycles access was blocked (Cycle)
system.cpu.dcache.blockedCycles::no_targets            0                       # number of cycles access was blocked (Cycle)
system.cpu.dcache.blockedCauses::no_mshrs            0                       # number of times access was blocked (Count)
system.cpu.dcache.blockedCauses::no_targets            0                       # number of times access was blocked (Count)
system.cpu.dcache.avgBlocked::no_mshrs            nan                       # average number of cycles each access was blocked ((Cycle/Count))
system.cpu.dcache.avgBlocked::no_targets          nan                       # average number of cycles each access was blocked ((Cycle/Count))
system.cpu.dcache.writebacks::writebacks          431                       # number of writebacks (Count)
system.cpu.dcache.writebacks::total               431                       # number of writebacks (Count)
system.cpu.dcache.demandMshrMisses::cpu.data         1375                       # number of demand (read+write) MSHR misses (Count)
system.cpu.dcache.demandMshrMisses::total         1375                       # number of demand (read+write) MSHR misses (Count)
system.cpu.dcache.overallMshrMisses::cpu.data         1375                       # number of overall MSHR misses (Count)
system.cpu.dcache.overallMshrMisses::total         1375                       # number of overall MSHR misses (Count)
system.cpu.dcache.demandMshrMissLatency::cpu.data     74218374                       # number of demand (read+write) MSHR miss ticks (Tick)
system.cpu.dcache.demandMshrMissLatency::total     74218374                       # number of demand (read+write) MSHR miss ticks (Tick)
system.cpu.dcache.overallMshrMissLatency::cpu.data     74218374                       # number of overall MSHR miss ticks (Tick)
system.cpu.dcache.overallMshrMissLatency::total     74218374                       # number of overall MSHR miss ticks (Tick)
system.cpu.dcache.demandMshrMissRate::cpu.data     0.000453                       # mshr miss ratio for demand accesses (Ratio)
system.cpu.dcache.demandMshrMissRate::total     0.000453                       # mshr miss ratio for demand accesses (Ratio)
system.cpu.dcache.overallMshrMissRate::cpu.data     0.000453                       # mshr miss ratio for overall accesses (Ratio)
system.cpu.dcache.overallMshrMissRate::total     0.000453                       # mshr miss ratio for overall accesses (Ratio)
system.cpu.dcache.demandAvgMshrMissLatency::cpu.data 53976.999273                       # average overall mshr miss latency ((Tick/Count))
system.cpu.dcache.demandAvgMshrMissLatency::total 53976.999273                       # average overall mshr miss latency ((Tick/Count))
system.cpu.dcache.overallAvgMshrMissLatency::cpu.data 53976.999273                       # average overall mshr miss latency ((Tick/Count))
system.cpu.dcache.overallAvgMshrMissLatency::total 53976.999273                       # average overall mshr miss latency ((Tick/Count))
system.cpu.dcache.replacements                    865                       # number of replacements (Count)
system.cpu.dcache.LockedRMWReadReq.hits::cpu.data            8                       # number of LockedRMWReadReq hits (Count)
system.cpu.dcache.LockedRMWReadReq.hits::total            8                       # number of LockedRMWReadReq hits (Count)
system.cpu.dcache.LockedRMWReadReq.misses::cpu.data            2                       # number of LockedRMWReadReq misses (Count)
system.cpu.dcache.LockedRMWReadReq.misses::total            2                       # number of LockedRMWReadReq misses (Count)
system.cpu.dcache.LockedRMWReadReq.missLatency::cpu.data       108558                       # number of LockedRMWReadReq miss ticks (Tick)
system.cpu.dcache.LockedRMWReadReq.missLatency::total       108558                       # number of LockedRMWReadReq miss ticks (Tick)
system.cpu.dcache.LockedRMWReadReq.accesses::cpu.data           10                       # number of LockedRMWReadReq accesses(hits+misses) (Count)
system.cpu.dcache.LockedRMWReadReq.accesses::total           10                       # number of LockedRMWReadReq accesses(hits+misses) (Count)
system.cpu.dcache.LockedRMWReadReq.missRate::cpu.data     0.200000                       # miss rate for LockedRMWReadReq accesses (Ratio)
system.cpu.dcache.LockedRMWReadReq.missRate::total     0.200000                       # miss rate for LockedRMWReadReq accesses (Ratio)
system.cpu.dcache.LockedRMWReadReq.avgMissLatency::cpu.data        54279                       # average LockedRMWReadReq miss latency ((Tick/Count))
system.cpu.dcache.LockedRMWReadReq.avgMissLatency::total        54279                       # average LockedRMWReadReq miss latency ((Tick/Count))
system.cpu.dcache.LockedRMWReadReq.mshrMisses::cpu.data            2                       # number of LockedRMWReadReq MSHR misses (Count)
system.cpu.dcache.LockedRMWReadReq.mshrMisses::total            2                       # number of LockedRMWReadReq MSHR misses (Count)
system.cpu.dcache.LockedRMWReadReq.mshrMissLatency::cpu.data       219114                       # number of LockedRMWReadReq MSHR miss ticks (Tick)
system.cpu.dcache.LockedRMWReadReq.mshrMissLatency::total       219114                       # number of LockedRMWReadReq MSHR miss ticks (Tick)
system.cpu.dcache.LockedRMWReadReq.mshrMissRate::cpu.data     0.200000                       # mshr miss rate for LockedRMWReadReq accesses (Ratio)
system.cpu.dcache.LockedRMWReadReq.mshrMissRate::total     0.200000                       # mshr miss rate for LockedRMWReadReq accesses (Ratio)
system.cpu.dcache.LockedRMWReadReq.avgMshrMissLatency::cpu.data       109557                       # average LockedRMWReadReq mshr miss latency ((Tick/Count))
system.cpu.dcache.LockedRMWReadReq.avgMshrMissLatency::total       109557                       # average LockedRMWReadReq mshr miss latency ((Tick/Count))
system.cpu.dcache.LockedRMWWriteReq.hits::cpu.data           10                       # number of LockedRMWWriteReq hits (Count)
system.cpu.dcache.LockedRMWWriteReq.hits::total           10                       # number of LockedRMWWriteReq hits (Count)
system.cpu.dcache.LockedRMWWriteReq.accesses::cpu.data           10                       # number of LockedRMWWriteReq accesses(hits+misses) (Count)
system.cpu.dcache.LockedRMWWriteReq.accesses::total           10                       # number of LockedRMWWriteReq accesses(hits+misses) (Count)
system.cpu.dcache.ReadReq.hits::cpu.data      2022701                       # number of ReadReq hits (Count)
system.cpu.dcache.ReadReq.hits::total         2022701                       # number of ReadReq hits (Count)
system.cpu.dcache.ReadReq.misses::cpu.data         1074                       # number of ReadReq misses (Count)
system.cpu.dcache.ReadReq.misses::total          1074                       # number of ReadReq misses (Count)
system.cpu.dcache.ReadReq.missLatency::cpu.data     58315293                       # number of ReadReq miss ticks (Tick)
system.cpu.dcache.ReadReq.missLatency::total     58315293                       # number of ReadReq miss ticks (Tick)
system.cpu.dcache.ReadReq.accesses::cpu.data      2023775                       # number of ReadReq accesses(hits+misses) (Count)
system.cpu.dcache.ReadReq.accesses::total      2023775                       # number of ReadReq accesses(hits+misses) (Count)
system.cpu.dcache.ReadReq.missRate::cpu.data     0.000531                       # miss rate for ReadReq accesses (Ratio)
system.cpu.dcache.ReadReq.missRate::total     0.000531                       # miss rate for ReadReq accesses (Ratio)
system.cpu.dcache.ReadReq.avgMissLatency::cpu.data 54297.293296                       # average ReadReq miss latency ((Tick/Count))
system.cpu.dcache.ReadReq.avgMissLatency::total 54297.293296                       # average ReadReq miss latency ((Tick/Count))
system.cpu.dcache.ReadReq.mshrMisses::cpu.data         1074                       # number of ReadReq MSHR misses (Count)
system.cpu.dcache.ReadReq.mshrMisses::total         1074                       # number of ReadReq MSHR misses (Count)
system.cpu.dcache.ReadReq.mshrMissLatency::cpu.data     57957651                       # number of ReadReq MSHR miss ticks (Tick)
system.cpu.dcache.ReadReq.mshrMissLatency::total     57957651                       # number of ReadReq MSHR miss ticks (Tick)
system.cpu.dcache.ReadReq.mshrMissRate::cpu.data     0.000531                       # mshr miss rate for ReadReq accesses (Ratio)
system.cpu.dcache.ReadReq.mshrMissRate::total     0.000531                       # mshr miss rate for ReadReq accesses (Ratio)
system.cpu.dcache.ReadReq.avgMshrMissLatency::cpu.data 53964.293296                       # average ReadReq mshr miss latency ((Tick/Count))
system.cpu.dcache.ReadReq.avgMshrMissLatency::total 53964.293296                       # average ReadReq mshr miss latency ((Tick/Count))
system.cpu.dcache.WriteReq.hits::cpu.data      1011620                       # number of WriteReq hits (Count)
system.cpu.dcache.WriteReq.hits::total        1011620                       # number of WriteReq hits (Count)
system.cpu.dcache.WriteReq.misses::cpu.data          301                       # number of WriteReq misses (Count)
system.cpu.dcache.WriteReq.misses::total          301                       # number of WriteReq misses (Count)
system.cpu.dcache.WriteReq.missLatency::cpu.data     16360956                       # number of WriteReq miss ticks (Tick)
system.cpu.dcache.WriteReq.missLatency::total     16360956                       # number of WriteReq miss ticks (Tick)
system.cpu.dcache.WriteReq.accesses::cpu.data      1011921                       # number of WriteReq accesses(hits+misses) (Count)
system.cpu.dcache.WriteReq.accesses::total      1011921                       # number of WriteReq accesses(hits+misses) (Count)
system.cpu.dcache.WriteReq.missRate::cpu.data     0.000297                       # miss rate for WriteReq accesses (Ratio)
system.cpu.dcache.WriteReq.missRate::total     0.000297                       # miss rate for WriteReq accesses (Ratio)
system.cpu.dcache.WriteReq.avgMissLatency::cpu.data 54355.335548                       # average WriteReq miss latency ((Tick/Count))
system.cpu.dcache.WriteReq.avgMissLatency::total 54355.335548                       # average WriteReq miss latency ((Tick/Count))
system.cpu.dcache.WriteReq.mshrMisses::cpu.data          301                       # number of WriteReq MSHR misses (Count)
system.cpu.dcache.WriteReq.mshrMisses::total          301                       # number of WriteReq MSHR misses (Count)
system.cpu.dcache.WriteReq.mshrMissLatency::cpu.data     16260723                       # number of WriteReq MSHR miss ticks (Tick)
system.cpu.dcache.WriteReq.mshrMissLatency::total     16260723                       # number of WriteReq MSHR miss ticks (Tick)
system.cpu.dcache.WriteReq.mshrMissRate::cpu.data     0.000297                       # mshr miss rate for WriteReq accesses (Ratio)
system.cpu.dcache.WriteReq.mshrMissRate::total     0.000297                       # mshr miss rate for WriteReq accesses (Ratio)
system.cpu.dcache.WriteReq.avgMshrMissLatency::cpu.data 54022.335548                       # average WriteReq mshr miss latency ((Tick/Count))
system.cpu.dcache.WriteReq.avgMshrMissLatency::total 54022.335548                       # average WriteReq mshr miss latency ((Tick/Count))
system.cpu.dcache.power_state.pwrStateResidencyTicks::UNDEFINED   5511527955                       # Cumulative time (in ticks) in various power states (Tick)
system.cpu.dcache.tags.tagsInUse           508.016510                       # Average ticks per tags in use ((Tick/Count))
system.cpu.dcache.tags.totalRefs              3035716                       # Total number of references to valid blocks. (Count)
system.cpu.dcache.tags.sampledRefs               1377                       # Sample count of references to valid blocks. (Count)
system.cpu.dcache.tags.avgRefs            2204.586783                       # Average number of references to valid blocks. ((Count/Count))
system.cpu.dcache.tags.warmupTick              109890                       # The tick when the warmup percentage was hit. (Tick)
system.cpu.dcache.tags.occupancies::cpu.data   508.016510                       # Average occupied blocks per tick, per requestor ((Count/Tick))
system.cpu.dcache.tags.avgOccs::cpu.data     0.992220                       # Average percentage of cache occupancy ((Ratio/Tick))
system.cpu.dcache.tags.avgOccs::total        0.992220                       # Average percentage of cache occupancy ((Ratio/Tick))
system.cpu.dcache.tags.occupanciesTaskId::1024          512                       # Occupied blocks per task id (Count)
system.cpu.dcache.tags.ageTaskId_1024::0           26                       # Occupied blocks per task id, per block age (Count)
system.cpu.dcache.tags.ageTaskId_1024::3          486                       # Occupied blocks per task id, per block age (Count)
system.cpu.dcache.tags.ratioOccsTaskId::1024            1                       # Ratio of occupied blocks and all blocks, per task id (Ratio)
system.cpu.dcache.tags.tagAccesses           12144241                       # Number of tag accesses (Count)
system.cpu.dcache.tags.dataAccesses          12144241                       # Number of data accesses (Count)
system.cpu.dcache.tags.power_state.pwrStateResidencyTicks::UNDEFINED   5511527955                       # Cumulative time (in ticks) in various power states (Tick)
system.cpu.exec_context.thread_0.numMatAluAccesses            0                       # Number of matrix alu accesses (Count)
system.cpu.exec_context.thread_0.numCallsReturns         1569                       # Number of times a function call or return occured (Count)
system.cpu.exec_context.thread_0.numMatInsts            0                       # Number of matrix instructions (Count)
system.cpu.exec_context.thread_0.numIdleCycles     0.003003                       # Number of idle cycles (Cycle)
system.cpu.exec_context.thread_0.numBusyCycles 16551134.996997                       # Number of busy cycles (Cycle)
system.cpu.exec_context.thread_0.notIdleFraction     1.000000                       # Percentage of non-idle cycles (Ratio)
system.cpu.exec_context.thread_0.idleFraction     0.000000                       # Percentage of idle cycles (Ratio)
system.cpu.executeStats0.numInsts                   0                       # Number of executed instructions (Count)
system.cpu.executeStats0.numNop                     0                       # Number of nop insts executed (Count)
system.cpu.executeStats0.numBranches                0                       # Number of branches executed (Count)
system.cpu.executeStats0.numLoadInsts               0                       # Number of load instructions executed (Count)
system.cpu.executeStats0.numStoreInsts        3035771                       # Number of stores executed (Count)
system.cpu.executeStats0.instRate                   0                       # Inst execution rate ((Count/Cycle))
system.cpu.executeStats0.numFpAluAccesses         5297                       # Number of float alu accesses (Count)
system.cpu.executeStats0.numFpRegReads           7963                       # Number of times the floating registers were read (Count)
system.cpu.executeStats0.numFpRegWrites          4008                       # Number of times the floating registers were written (Count)
system.cpu.executeStats0.numIntAluAccesses     15173779                       # Number of integer alu accesses (Count)
system.cpu.executeStats0.numIntRegReads      18715331                       # Number of times the integer registers were read (Count)
system.cpu.executeStats0.numIntRegWrites     13132139                       # Number of times the integer registers were written (Count)
system.cpu.executeStats0.numMemRefs           3035771                       # Number of memory refs (Count)
system.cpu.executeStats0.numMiscRegReads      5072451                       # Number of times the Misc registers were read (Count)
system.cpu.executeStats0.numVecAluAccesses            0                       # Number of vector alu accesses (Count)
system.cpu.executeStats0.numDiscardedOps            0                       # Number of ops (including micro ops) which were discarded before commit (Count)
system.cpu.fetchStats0.numInsts              10092973                       # Number of instructions fetched (thread level) (Count)
system.cpu.fetchStats0.numOps                15178836                       # Number of ops (including micro ops) fetched (thread level) (Count)
system.cpu.fetchStats0.fetchRate             0.609805                       # Number of inst fetches per cycle ((Count/Cycle))
system.cpu.fetchStats0.numBranches             518993                       # Number of branches fetched (Count)
system.cpu.fetchStats0.branchRate            0.031357                       # Number of branch fetches per cycle (Ratio)
system.cpu.fetchStats0.numFetchSuspends             0                       # Number of times Execute suspended instruction fetching (Count)
system.cpu.icache.demandHits::cpu.inst       13121768                       # number of demand (read+write) hits (Count)
system.cpu.icache.demandHits::total          13121768                       # number of demand (read+write) hits (Count)
system.cpu.icache.overallHits::cpu.inst      13121768                       # number of overall hits (Count)
system.cpu.icache.overallHits::total         13121768                       # number of overall hits (Count)
system.cpu.icache.demandMisses::cpu.inst         1023                       # number of demand (read+write) misses (Count)
system.cpu.icache.demandMisses::total            1023                       # number of demand (read+write) misses (Count)
system.cpu.icache.overallMisses::cpu.inst         1023                       # number of overall misses (Count)
system.cpu.icache.overallMisses::total           1023                       # number of overall misses (Count)
system.cpu.icache.demandMissLatency::cpu.inst     55556055                       # number of demand (read+write) miss ticks (Tick)
system.cpu.icache.demandMissLatency::total     55556055                       # number of demand (read+write) miss ticks (Tick)
system.cpu.icache.overallMissLatency::cpu.inst     55556055                       # number of overall miss ticks (Tick)
system.cpu.icache.overallMissLatency::total     55556055                       # number of overall miss ticks (Tick)
system.cpu.icache.demandAccesses::cpu.inst     13122791                       # number of demand (read+write) accesses (Count)
system.cpu.icache.demandAccesses::total      13122791                       # number of demand (read+write) accesses (Count)
system.cpu.icache.overallAccesses::cpu.inst     13122791                       # number of overall (read+write) accesses (Count)
system.cpu.icache.overallAccesses::total     13122791                       # number of overall (read+write) accesses (Count)
system.cpu.icache.demandMissRate::cpu.inst     0.000078                       # miss rate for demand accesses (Ratio)
system.cpu.icache.demandMissRate::total      0.000078                       # miss rate for demand accesses (Ratio)
system.cpu.icache.overallMissRate::cpu.inst     0.000078                       # miss rate for overall accesses (Ratio)
system.cpu.icache.overallMissRate::total     0.000078                       # miss rate for overall accesses (Ratio)
system.cpu.icache.demandAvgMissLatency::cpu.inst 54306.994135                       # average overall miss latency in ticks ((Tick/Count))
system.cpu.icache.demandAvgMissLatency::total 54306.994135                       # average overall miss latency in ticks ((Tick/Count))
system.cpu.icache.overallAvgMissLatency::cpu.inst 54306.994135                       # average overall miss latency ((Tick/Count))
system.cpu.icache.overallAvgMissLatency::total 54306.994135                       # average overall miss latency ((Tick/Count))
system.cpu.icache.blockedCycles::no_mshrs            0                       # number of cycles access was blocked (Cycle)
system.cpu.icache.blockedCycles::no_targets            0                       # number of cycles access was blocked (Cycle)
system.cpu.icache.blockedCauses::no_mshrs            0                       # number of times access was blocked (Count)
system.cpu.icache.blockedCauses::no_targets            0                       # number of times access was blocked (Count)
system.cpu.icache.avgBlocked::no_mshrs            nan                       # average number of cycles each access was blocked ((Cycle/Count))
system.cpu.icache.avgBlocked::no_targets          nan                       # average number of cycles each access was blocked ((Cycle/Count))
system.cpu.icache.demandMshrMisses::cpu.inst         1023                       # number of demand (read+write) MSHR misses (Count)
system.cpu.icache.demandMshrMisses::total         1023                       # number of demand (read+write) MSHR misses (Count)
system.cpu.icache.overallMshrMisses::cpu.inst         1023                       # number of overall MSHR misses (Count)
system.cpu.icache.overallMshrMisses::total         1023                       # number of overall MSHR misses (Count)
system.cpu.icache.demandMshrMissLatency::cpu.inst     55215396                       # number of demand (read+write) MSHR miss ticks (Tick)
system.cpu.icache.demandMshrMissLatency::total     55215396                       # number of demand (read+write) MSHR miss ticks (Tick)
system.cpu.icache.overallMshrMissLatency::cpu.inst     55215396                       # number of overall MSHR miss ticks (Tick)
system.cpu.icache.overallMshrMissLatency::total     55215396                       # number of overall MSHR miss ticks (Tick)
system.cpu.icache.demandMshrMissRate::cpu.inst     0.000078                       # mshr miss ratio for demand accesses (Ratio)
system.cpu.icache.demandMshrMissRate::total     0.000078                       # mshr miss ratio for demand accesses (Ratio)
system.cpu.icache.overallMshrMissRate::cpu.inst     0.000078                       # mshr miss ratio for overall accesses (Ratio)
system.cpu.icache.overallMshrMissRate::total     0.000078                       # mshr miss ratio for overall accesses (Ratio)
system.cpu.icache.demandAvgMshrMissLatency::cpu.inst 53973.994135                       # average overall mshr miss latency ((Tick/Count))
system.cpu.icache.demandAvgMshrMissLatency::total 53973.994135                       # average overall mshr miss latency ((Tick/Count))
system.cpu.icache.overallAvgMshrMissLatency::cpu.inst 53973.994135                       # average overall mshr miss latency ((Tick/Count))
system.cpu.icache.overallAvgMshrMissLatency::total 53973.994135                       # average overall mshr miss latency ((Tick/Count))
system.cpu.icache.replacements                    519                       # number of replacements (Count)
system.cpu.icache.ReadReq.hits::cpu.inst     13121768                       # number of ReadReq hits (Count)
system.cpu.icache.ReadReq.hits::total        13121768                       # number of ReadReq hits (Count)
system.cpu.icache.ReadReq.misses::cpu.inst         1023                       # number of ReadReq misses (Count)
system.cpu.icache.ReadReq.misses::total          1023                       # number of ReadReq misses (Count)
system.cpu.icache.ReadReq.missLatency::cpu.inst     55556055                       # number of ReadReq miss ticks (Tick)
system.cpu.icache.ReadReq.missLatency::total     55556055                       # number of ReadReq miss ticks (Tick)
system.cpu.icache.ReadReq.accesses::cpu.inst     13122791                       # number of ReadReq accesses(hits+misses) (Count)
system.cpu.icache.ReadReq.accesses::total     13122791                       # number of ReadReq accesses(hits+misses) (Count)
system.cpu.icache.ReadReq.missRate::cpu.inst     0.000078                       # miss rate for ReadReq accesses (Ratio)
system.cpu.icache.ReadReq.missRate::total     0.000078                       # miss rate for ReadReq accesses (Ratio)
system.cpu.icache.ReadReq.avgMissLatency::cpu.inst 54306.994135                       # average ReadReq miss latency ((Tick/Count))
system.cpu.icache.ReadReq.avgMissLatency::total 54306.994135                       # average ReadReq miss latency ((Tick/Count))
system.cpu.icache.ReadReq.mshrMisses::cpu.inst         1023                       # number of ReadReq MSHR misses (Count)
system.cpu.icache.ReadReq.mshrMisses::total         1023                       # number of ReadReq MSHR misses (Count)
system.cpu.icache.ReadReq.mshrMissLatency::cpu.inst     55215396                       # number of ReadReq MSHR miss ticks (Tick)
system.cpu.icache.ReadReq.mshrMissLatency::total     55215396                       # number of ReadReq MSHR miss ticks (Tick)
system.cpu.icache.ReadReq.mshrMissRate::cpu.inst     0.000078                       # mshr miss rate for ReadReq accesses (Ratio)
system.cpu.icache.ReadReq.mshrMissRate::total     0.000078                       # mshr miss rate for ReadReq accesses (Ratio)
system.cpu.icache.ReadReq.avgMshrMissLatency::cpu.inst 53973.994135                       # average ReadReq mshr miss latency ((Tick/Count))
system.cpu.icache.ReadReq.avgMshrMissLatency::total 53973.994135                       # average ReadReq mshr miss latency ((Tick/Count))
system.cpu.icache.power_state.pwrStateResidencyTicks::UNDEFINED   5511527955                       # Cumulative time (in ticks) in various power states (Tick)
system.cpu.icache.tags.tagsInUse           497.099488                       # Average ticks per tags in use ((Tick/Count))
system.cpu.icache.tags.totalRefs             13122791                       # Total number of references to valid blocks. (Count)
system.cpu.icache.tags.sampledRefs               1023                       # Sample count of references to valid blocks. (Count)
system.cpu.icache.tags.avgRefs           12827.752688                       # Average number of references to valid blocks. ((Count/Count))
system.cpu.icache.tags.warmupTick               53946                       # The tick when the warmup percentage was hit. (Tick)
system.cpu.icache.tags.occupancies::cpu.inst   497.099488                       # Average occupied blocks per tick, per requestor ((Count/Tick))
system.cpu.icache.tags.avgOccs::cpu.inst     0.970897                       # Average percentage of cache occupancy ((Ratio/Tick))
system.cpu.icache.tags.avgOccs::total        0.970897                       # Average percentage of cache occupancy ((Ratio/Tick))
system.cpu.icache.tags.occupanciesTaskId::1024          504                       # Occupied blocks per task id (Count)
system.cpu.icache.tags.ageTaskId_1024::0           87                       # Occupied blocks per task id, per block age (Count)
system.cpu.icache.tags.ageTaskId_1024::3          417                       # Occupied blocks per task id, per block age (Count)
system.cpu.icache.tags.ratioOccsTaskId::1024     0.984375                       # Ratio of occupied blocks and all blocks, per task id (Ratio)
system.cpu.icache.tags.tagAccesses           52492187                       # Number of tag accesses (Count)
system.cpu.icache.tags.dataAccesses          52492187                       # Number of data accesses (Count)
system.cpu.icache.tags.power_state.pwrStateResidencyTicks::UNDEFINED   5511527955                       # Cumulative time (in ticks) in various power states (Tick)
system.cpu.interrupts.clk_domain.clock           5328                       # Clock period in ticks (Tick)
system.cpu.mmu.dtb.rdAccesses                 2023836                       # TLB accesses on read requests (Count)
system.cpu.mmu.dtb.wrAccesses                 1011940                       # TLB accesses on write requests (Count)
system.cpu.mmu.dtb.rdMisses                       149                       # TLB misses on read requests (Count)
system.cpu.mmu.dtb.wrMisses                        25                       # TLB misses on write requests (Count)
system.cpu.mmu.dtb.walker.power_state.pwrStateResidencyTicks::UNDEFINED   5511527955                       # Cumulative time (in ticks) in various power states (Tick)
system.cpu.mmu.itb.rdAccesses                       0                       # TLB accesses on read requests (Count)
system.cpu.mmu.itb.wrAccesses                13122819                       # TLB accesses on write requests (Count)
system.cpu.mmu.itb.rdMisses                         0                       # TLB misses on read requests (Count)
system.cpu.mmu.itb.wrMisses                       142                       # TLB misses on write requests (Count)
system.cpu.mmu.itb.walker.power_state.pwrStateResidencyTicks::UNDEFINED   5511527955                       # Cumulative time (in ticks) in various power states (Tick)
system.cpu.power_state.pwrStateResidencyTicks::ON   5511527955                       # Cumulative time (in ticks) in various power states (Tick)
system.cpu.thread_0.numInsts                        0                       # Number of Instructions committed (Count)
system.cpu.thread_0.numOps                          0                       # Number of Ops committed (Count)
system.cpu.thread_0.numMemRefs                      0                       # Number of Memory References (Count)
system.cpu.workload.numSyscalls                    29                       # Number of system calls (Count)
system.mem.bytesRead::cpu.inst                  65472                       # Number of bytes read from this memory (Byte)
system.mem.bytesRead::cpu.data                  88128                       # Number of bytes read from this memory (Byte)
system.mem.bytesRead::total                    153600                       # Number of bytes read from this memory (Byte)
system.mem.bytesInstRead::cpu.inst              65472                       # Number of instructions bytes read from this memory (Byte)
system.mem.bytesInstRead::total                 65472                       # Number of instructions bytes read from this memory (Byte)
system.mem.bytesWritten::writebacks             27584                       # Number of bytes written to this memory (Byte)
system.mem.bytesWritten::total                  27584                       # Number of bytes written to this memory (Byte)
system.mem.numReads::cpu.inst                    1023                       # Number of read requests responded to by this memory (Count)
system.mem.numReads::cpu.data                    1377                       # Number of read requests responded to by this memory (Count)
system.mem.numReads::total                       2400                       # Number of read requests responded to by this memory (Count)
system.mem.numWrites::writebacks                  431                       # Number of write requests responded to by this memory (Count)
system.mem.numWrites::total                       431                       # Number of write requests responded to by this memory (Count)
system.mem.bwRead::cpu.inst                  11879102                       # Total read bandwidth from this memory ((Byte/Second))
system.mem.bwRead::cpu.data                  15989758                       # Total read bandwidth from this memory ((Byte/Second))
system.mem.bwRead::total                     27868860                       # Total read bandwidth from this memory ((Byte/Second))
system.mem.bwInstRead::cpu.inst              11879102                       # Instruction read bandwidth from this memory ((Byte/Second))
system.mem.bwInstRead::total                 11879102                       # Instruction read bandwidth from this memory ((Byte/Second))
system.mem.bwWrite::writebacks                5004783                       # Write bandwidth from this memory ((Byte/Second))
system.mem.bwWrite::total                     5004783                       # Write bandwidth from this memory ((Byte/Second))
system.mem.bwTotal::writebacks                5004783                       # Total bandwidth to/from this memory ((Byte/Second))
system.mem.bwTotal::cpu.inst                 11879102                       # Total bandwidth to/from this memory ((Byte/Second))
system.mem.bwTotal::cpu.data                 15989758                       # Total bandwidth to/from this memory ((Byte/Second))
system.mem.bwTotal::total                    32873643                       # Total bandwidth to/from this memory ((Byte/Second))
system.mem.power_state.pwrStateResidencyTicks::UNDEFINED   5511527955                       # Cumulative time (in ticks) in various power states (Tick)
system.membus.transDist::ReadResp                2097                       # Transaction distribution (Count)
system.membus.transDist::WritebackDirty           431                       # Transaction distribution (Count)
system.membus.transDist::CleanEvict               953                       # Transaction distribution (Count)
system.membus.transDist::ReadExReq                303                       # Transaction distribution (Count)
system.membus.transDist::ReadExResp               303                       # Transaction distribution (Count)
system.membus.transDist::ReadSharedReq           2097                       # Transaction distribution (Count)
system.membus.pktCount_system.cpu.icache.mem_side_port::system.mem.port         2565                       # Packet count per connected requestor and responder (Count)
system.membus.pktCount_system.cpu.icache.mem_side_port::total         2565                       # Packet count per connected requestor and responder (Count)
system.membus.pktCount_system.cpu.dcache.mem_side_port::system.mem.port         3619                       # Packet count per connected requestor and responder (Count)
system.membus.pktCount_system.cpu.dcache.mem_side_port::total         3619                       # Packet count per connected requestor and responder (Count)
system.membus.pktCount::total                    6184                       # Packet count per connected requestor and responder (Count)
system.membus.pktSize_system.cpu.icache.mem_side_port::system.mem.port        65472                       # Cumulative packet size per connected requestor and responder (Byte)
system.membus.pktSize_system.cpu.icache.mem_side_port::total        65472                       # Cumulative packet size per connected requestor and responder (Byte)
system.membus.pktSize_system.cpu.dcache.mem_side_port::system.mem.port       115712                       # Cumulative packet size per connected requestor and responder (Byte)
system.membus.pktSize_system.cpu.dcache.mem_side_port::total       115712                       # Cumulative packet size per connected requestor and responder (Byte)
system.membus.pktSize::total                   181184                       # Cumulative packet size per connected requestor and responder (Byte)
system.membus.snoops                                0                       # Total snoops (Count)
system.membus.snoopTraffic                          0                       # Total snoop traffic (Byte)
system.membus.snoopFanout::samples               2439                       # Request fanout histogram (Count)
system.membus.snoopFanout::mean                     0                       # Request fanout histogram (Count)
system.membus.snoopFanout::stdev                    0                       # Request fanout histogram (Count)
system.membus.snoopFanout::underflows               0      0.00%      0.00% # Request fanout histogram (Count)
system.membus.snoopFanout::0                     2439    100.00%    100.00% # Request fanout histogram (Count)
system.membus.snoopFanout::1                        0      0.00%    100.00% # Request fanout histogram (Count)
system.membus.snoopFanout::2                        0      0.00%    100.00% # Request fanout histogram (Count)
system.membus.snoopFanout::overflows                0      0.00%    100.00% # Request fanout histogram (Count)
system.membus.snoopFanout::min_value                0                       # Request fanout histogram (Count)
system.membus.snoopFanout::max_value                0                       # Request fanout histogram (Count)
system.membus.snoopFanout::total                 2439                       # Request fanout histogram (Count)
system.membus.power_state.pwrStateResidencyTicks::UNDEFINED   5511527955                       # Cumulative time (in ticks) in various power states (Tick)
system.membus.reqLayer0.occupancy             1857659                       # Layer occupancy (ticks) (Tick)
system.membus.reqLayer0.utilization               0.0                       # Layer utilization (Ratio)
system.membus.respLayer0.occupancy            1992804                       # Layer occupancy (ticks) (Tick)
system.membus.respLayer0.utilization              0.0                       # Layer utilization (Ratio)
system.membus.respLayer1.occupancy            2682396                       # Layer occupancy (ticks) (Tick)
system.membus.respLayer1.utilization              0.0                       # Layer utilization (Ratio)
system.membus.snoop_filter.totRequests           3823                       # Total number of requests made to the snoop filter. (Count)
system.membus.snoop_filter.hitSingleRequests         1384                       # Number of requests hitting in the snoop filter with a single holder of the requested data. (Count)
system.membus.snoop_filter.hitMultiRequests            0                       # Number of requests hitting in the snoop filter with multiple (>1) holders of the requested data. (Count)
system.membus.snoop_filter.totSnoops                0                       # Total number of snoops made to the snoop filter. (Count)
system.membus.snoop_filter.hitSingleSnoops            0                       # Number of snoops hitting in the snoop filter with a single holder of the requested data. (Count)
system.membus.snoop_filter.hitMultiSnoops            0                       # Number of snoops hitting in the snoop filter with multiple (>1) holders of the requested data. (Count)
system.workload.inst.arm                            0                       # number of arm instructions executed (Count)
system.workload.inst.quiesce                        0                       # number of quiesce instructions executed (Count)

---------- End Simulation Statistics   ----------
